  62
        -98.93509922
 C         -0.0058855885       -2.0176580903       -0.2535617205
 C          0.7117127013       -1.6845020303        0.9197014396
 C          2.1667665011       -1.4599408890        0.7594333896
 C          2.7112206511       -1.5107573681       -0.4677755705
 C          4.1527834609       -1.3415090168       -0.8688952705
 C          4.4873420997        0.1221020136       -1.1983805499
 C          4.9502406792        0.9512410235       -0.0025173696
 H          5.9296704195        0.5963139441        0.3246521302
 H          5.0758444383        1.9819065437       -0.3416785892
 C          3.9952290393        0.9334806922        1.1928815505
 H          2.9654510792        1.0144530615        0.8410592006
 H          4.1993886786        1.8128336821        1.8071293908
 C          4.1357361403       -0.3255365381        2.0601895099
 H          5.0179854607       -0.8868020572        1.7545242796
 H          4.2986754102       -0.0359297884        3.1009592800
 C          2.9075057810       -1.2391621590        2.0518285196
 H          3.1884246718       -2.2193788190        2.4547648592
 H          2.1544999908       -0.8340775599        2.7369829699
 H          3.5990860493        0.5760843331       -1.6434022197
 H          5.2797744196        0.1378324146       -1.9491276000
 H          4.8140661113       -1.7329020066       -0.1015443507
 H          4.2817145913       -1.9387162863       -1.7742116808
 O          1.9579261111       -1.7196397182       -1.5850173005
 C          0.6115490714       -2.0065828393       -1.5070954305
 O          0.0718493315       -2.2396020693       -2.6075377006
 H         -1.3700563301        0.0443034881        0.9052742505
 C         -2.2277070300       -0.0816409823        0.2620353205
 C         -2.4228591491       -1.2756844121       -0.4171058600
 C         -3.5475338791       -1.4140416127       -1.2241586699
 C         -4.4646913499       -0.3867253134       -1.3405087994
 C         -4.2674817508        0.8042934965       -0.6666742289
 C         -3.1403779308        0.9578202471        0.1345921210
 N         -2.9286956017        2.1675525369        0.8085876515
 S         -1.4212983822        2.7546397480        1.1833670217
 O         -0.8256237915        2.0020610880        2.2569751713
 O         -1.6573577832        4.1569848577        1.4622288023
 C         -0.3933896322        2.6440281394       -0.2745577485
 C          0.9605793277        2.8211658204       -0.0699035985
 C          1.8150732576        2.8350797815       -1.1599139786
 C          1.3045801976        2.6589322616       -2.4364912886
 C         -0.0559734522        2.4817550007       -2.6275769186
 C         -0.9180386522        2.4856447095       -1.5411381385
 H         -1.9780546721        2.3550103187       -1.6833383785
 H         -0.4526738922        2.3415435808       -3.6202737886
 H          1.9697123776        2.6612647025       -3.2857885686
 H          2.8718607175        2.9850591023       -1.0086056386
 H          1.3156718377        2.9436598902        0.9412143815
 H         -3.5762784323        2.9092997565        0.5876172819
 H         -4.9761133114        1.6133377960       -0.7573267485
 H         -5.3348586298       -0.5086890638       -1.9668250894
 H         -3.6950343884       -2.3341342826       -1.7688053003
 C         -1.4659741382       -2.4344742515       -0.2686336805
 H         -1.5789441278       -3.0643264912       -1.1629528608
 C         -1.8695199275       -3.2572462623        0.9418632791
 C         -2.9600843167       -4.2757194031        0.8137722188
 C         -1.5379654363       -4.7172760120        0.9839235985
 H         -1.2340022159       -5.1477367022        1.9261127283
 H         -1.0285142361       -5.1374747213        0.1285812083
 H         -3.6409977865       -4.4038058340        1.6411177488
 H         -3.4157114766       -4.4099572030       -0.1552516712
 H         -1.8007734478       -2.7061583526        1.8708844594
 O          0.1951728113       -1.5932084811        2.0646418897
