  62
        -98.94080601
 C         -2.5875846769       -1.3232597353        0.2237707494
 C         -2.4183610988       -0.2253379713       -0.6574450380
 C         -3.5530881166        0.7105192626       -0.7409501423
 C         -4.6616408453        0.4813454822       -0.0157829178
 C         -5.8645335450        1.3773450401        0.0273280692
 C         -5.7472229165        2.4079917583        1.1588659861
 C         -4.4090632242        3.1468419596        1.1853984130
 H         -4.4527402980        3.8697863457        2.0028023089
 H         -3.6127650606        2.4384519552        1.4259966135
 C         -4.0591145323        3.8738726785       -0.1205157298
 H         -4.9577889753        4.0048634014       -0.7244971290
 H         -3.6838143999        4.8700786655        0.1228652825
 C         -2.9807283776        3.1869520444       -0.9609724524
 H         -2.1083322680        2.9714194439       -0.3377908376
 H         -2.6585605085        3.8856751364       -1.7380432111
 C         -3.4048263344        1.8896013100       -1.6609761896
 H         -4.3252759675        2.0588760835       -2.2238278754
 H         -2.6133163169        1.6226447821       -2.3677834768
 H         -6.5602563225        3.1286933531        1.0549736964
 H         -5.8709101907        1.8903343913        2.1128342599
 H         -5.9692744085        1.8832117051       -0.9304333120
 H         -6.7472483885        0.7595656727        0.2008455381
 O         -4.7912064127       -0.5855710854        0.8126127226
 C         -3.7574579376       -1.4922117002        0.9719455526
 O         -3.9977183365       -2.3960195796        1.7967007075
 H          0.6262535395       -1.9224709474       -1.2114754341
 C          0.7883204230       -1.5104062092       -0.2277646101
 C         -0.1901542783       -1.6496402380        0.7423189181
 C          0.0210393548       -1.0748144135        1.9919100256
 C          1.1881549931       -0.3856196937        2.2622878248
 C          2.1632976620       -0.2462659373        1.2898995569
 C          1.9512583051       -0.7966700574        0.0334026239
 N          2.9272185999       -0.6574195579       -0.9653876871
 S          3.7437914405        0.7960081782       -1.1350834685
 O          2.9476938567        1.9285485478       -0.7238657922
 O          4.2129330683        0.8018034980       -2.5040122087
 C          5.1458081640        0.6094553156       -0.0503269334
 C          5.4497622769        1.6024634730        0.8600274560
 C          6.5531913868        1.4430391949        1.6840586465
 C          7.3303191019        0.2995544087        1.5829474239
 C          7.0135858188       -0.6876327284        0.6616360179
 C          5.9126351634       -0.5335784571       -0.1654160415
 H          5.6350180964       -1.2756113254       -0.8951225853
 H          7.6201494984       -1.5757081397        0.5859254255
 H          8.1877915665        0.1772300086        2.2256924482
 H          6.8007179366        2.2100237129        2.4003228222
 H          4.8139586841        2.4724956113        0.9076290939
 H          2.6398571097       -1.0172250949       -1.8639787766
 H          3.0682869000        0.3038444269        1.4892399267
 H          1.3404973171        0.0520737886        3.2373112000
 H         -0.7485249445       -1.1675711682        2.7464212115
 C         -1.4949956740       -2.3531597407        0.4667090684
 H         -1.7998674178       -2.8728340650        1.3890022826
 C         -1.3781080451       -3.4221910529       -0.6098118606
 C         -2.6093017031       -4.0039077764       -1.2363157260
 C         -1.6731491551       -3.1706585438       -2.0565955089
 H         -1.0603299664       -3.6684915983       -2.7945085414
 H         -1.9829683806       -2.1793909890       -2.3470361076
 H         -3.5594737874       -3.5753133287       -0.9518562123
 H         -2.6450989301       -5.0681011546       -1.4138023110
 H         -0.5725857452       -4.1178735626       -0.3940949718
 O         -1.3897832470       -0.0221401516       -1.3538258869
