  62
        -98.93908314
 C          2.6166163705        0.1824121007       -0.4266251700
 C          2.2518546205        0.8166968806        0.7855446400
 C          1.6606849101        2.1555252005        0.6590109700
 C          1.5211947598        2.7005686004       -0.5627159000
 C          0.8213540194        3.9955244202       -0.8625909599
 C         -0.7050866906        3.7703024498       -0.8523869096
 C         -1.4449780106        4.5100639196        0.2625705405
 H         -1.5098250409        5.5698051796        0.0049645704
 H         -2.4610634004        4.1113772594        0.2915740007
 C         -0.8261779203        4.4019473998        1.6598703104
 H         -0.0038267005        5.1136097201        1.7513869902
 H         -1.5915273903        4.7165063097        2.3725618905
 C         -0.3182075499        3.0111540200        2.0629281103
 H         -0.5670805296        2.8467384400        3.1135303104
 H         -0.8205121797        2.2318282598        1.4878441805
 C          1.2056097602        2.8277879704        1.9234958501
 H          1.5577184605        2.1780159205        2.7300045201
 H          1.7077960399        3.7933171205        2.0310615800
 H         -1.1251683608        4.0844855096       -1.8098393596
 H         -0.8959950703        2.6978793397       -0.7642294095
 H          1.1040872693        4.7476071103       -0.1292159600
 H          1.1502960491        4.3246665002       -1.8488012700
 O          1.9375085297        2.0832937004       -1.7007187900
 C          2.4532440601        0.7978935806       -1.6647431200
 O          2.7339179600        0.3225346506       -2.7865640401
 O          2.4005800808        0.2833456407        1.9168069500
 C          3.0776618308       -1.2626140492       -0.4057367401
 C          2.0122589412       -2.1213074195        0.2378774902
 C          2.2995330516       -3.2413374494        1.0070777002
 C          1.2743276819       -3.9869896996        1.5650399704
 C         -0.0483000482       -3.6278256400        1.3857019906
 C         -0.3460310786       -2.5031268701        0.6217049606
 C          0.6801277411       -1.7846881598        0.0341977104
 H          0.4356694407       -0.9306249999       -0.5806274996
 N         -1.6731247788       -2.0667043204        0.4796407408
 S         -2.0879802793       -0.8315294006       -0.5782748292
 O         -1.7743736694       -1.1943677906       -1.9447406092
 O         -1.5319066895        0.4075755196       -0.0978621993
 C         -3.8551503893       -0.8285459410       -0.3462770989
 C         -4.3850173093       -0.1324877611        0.7235263612
 C         -5.7561999992       -0.1536392315        0.9237939614
 C         -6.5701061192       -0.8680095917        0.0571072116
 C         -6.0244879592       -1.5603045016       -1.0134816285
 C         -4.6538623492       -1.5430262613       -1.2190134887
 H         -4.1854003292       -2.0563011312       -2.0434193988
 H         -6.6596339891       -2.1117538418       -1.6877735484
 H         -7.6368701291       -0.8827204520        0.2151378718
 H         -6.1839838192        0.3862558084        1.7530113315
 H         -3.7133857393        0.4135006291        1.3656914210
 H         -2.3639174486       -2.8010843306        0.5253747309
 H         -0.8432592480       -4.2002158902        1.8376228207
 H          1.5112678122       -4.8575925795        2.1576821404
 H          3.3254420817       -3.5279687991        1.1722977600
 H          3.1735789607       -1.5682323692       -1.4592554401
 C          4.4301299710       -1.3903407788        0.2653037297
 C          5.4085413512       -2.4305620486       -0.1888981004
 C          5.6535729408       -0.9853892685       -0.4989532605
 H          6.4424235507       -0.4681413583        0.0259477993
 H          5.5090518905       -0.6459620986       -1.5147461605
 H          6.0351699014       -2.9062638284        0.5504255695
 H          5.1118430412       -3.0766326687       -1.0015347203
 H          4.3922347811       -1.1436575088        1.3199588997
