  62
        -98.93743439
 C         -2.4719597502       -1.1715201803        0.2631013491
 C         -3.0851770001       -0.2867115408        1.1873295397
 C         -4.4064945901        0.2287527094        0.8180394403
 C         -4.9747090104       -0.1678111600       -0.3350335099
 C         -6.3272596104        0.2483653403       -0.8457652294
 C         -6.3239505706        1.5885478107       -1.5939070686
 C         -6.1496208004        2.8255595902       -0.7118577480
 H         -6.3841769705        3.6947446306       -1.3295105274
 H         -6.8773768303        2.7973812598        0.0996871822
 C         -4.7379098103        2.9985326799       -0.1340022381
 H         -4.0351155404        2.3764348402       -0.6931674186
 H         -4.4169339303        4.0349253800       -0.2604022476
 C         -4.6156443600        2.6658551891        1.3531595117
 H         -5.2116061899        3.3706679588        1.9372897022
 H         -3.5691777300        2.7857069089        1.6456404415
 C         -5.0483792400        1.2399615189        1.7189128209
 H         -4.7191801198        1.0323343783        2.7400803108
 H         -6.1339141700        1.1531824089        1.6768165111
 H         -5.5344397707        1.5650232612       -2.3484396288
 H         -7.2800740407        1.6726702110       -2.1154980084
 H         -6.6518389206       -0.5316523993       -1.5377448597
 H         -7.0341008903        0.2941888199       -0.0168699092
 O         -4.3667547005       -1.0338480395       -1.1852596005
 C         -3.0934615305       -1.5347010597       -0.9328335410
 O         -2.6624932706       -2.2731059092       -1.8355458515
 O         -2.5498815199        0.0489579886        2.2789020398
 C         -1.0964859502       -1.6900589905        0.6413189986
 C         -0.0157970903       -0.7861722102        0.1082696189
 C          0.0514275595       -0.4488861795       -1.2403301110
 C          1.0664625894        0.3643460808       -1.7110830607
 C          2.0317094196        0.8587468303       -0.8498084906
 C          1.9638363098        0.5401699495        0.4986741992
 C          0.9456458599       -0.2764644707        0.9683711590
 H          0.8992577801       -0.5174273713        2.0224640188
 N          2.9695304300        1.0303120490        1.3713093393
 S          4.3701602500        0.0890244390        1.3360172085
 O          4.0454838699       -1.3171482009        1.2359859978
 O          5.1366072102        0.4847191184        2.4965714286
 C          5.1861436797        0.6331111799       -0.1462188113
 C          5.1778667095       -0.1774741495       -1.2640825918
 C          5.7974167593        0.2718027211       -2.4197700717
 C          6.4096531093        1.5159299011       -2.4359080711
 C          6.4106776895        2.3167460805       -1.3032105006
 C          5.7924048897        1.8742683999       -0.1447343608
 H          5.7730980899        2.4593665794        0.7596957196
 H          6.8894367995        3.2825597205       -1.3202894102
 H          6.8898906591        1.8630216416       -3.3372019710
 H          5.7974372691       -0.3486916384       -3.3014316020
 H          4.6877271595       -1.1360356495       -1.2055379922
 H          2.6534416102        1.0899717985        2.3304817594
 H          2.8214743295        1.4977489305       -1.2096780704
 H          1.1073140992        0.6151537113       -2.7600350306
 H         -0.7002657807       -0.8360616891       -1.9122470410
 H         -1.0680316600       -1.6182108812        1.7409413586
 C         -0.8707876902       -3.1531543703        0.2887064677
 C          0.0255488295       -3.6248990197       -0.8121925427
 C          0.4398803998       -3.8078855305        0.6151100471
 H          0.4323950499       -4.8016763108        1.0368068965
 H          1.2369566099       -3.1789274107        0.9866042873
 H         -0.2945964506       -4.4857876594       -1.3787289432
 H          0.5486543994       -2.8889378294       -1.4012214624
 H         -1.7635662502       -3.7465141904        0.4608070475
