  62
        -98.93867482
 C          1.9702045097        1.3294384499        0.0559220592
 C          2.5462429200        0.6422907502        1.1490493293
 C          3.8273744199       -0.0396847798        0.8980299392
 C          4.3567814197        0.0037370899       -0.3371188809
 C          5.6234971696       -0.6515270702       -0.8140458910
 C          5.3278353996       -2.0290216303       -1.4307938006
 C          5.2996220499       -3.1875359501       -0.4345411202
 H          4.9512053998       -4.0716158002       -0.9735521599
 H          6.3164696799       -3.3920967699       -0.0929020304
 C          4.4060070801       -2.9743840598        0.7902000799
 H          4.1717429602       -3.9553292197        1.2086359302
 H          3.4615496500       -2.5223907999        0.4807741900
 C          5.0678330303       -2.1149518695        1.8779586295
 H          5.0040812705       -2.6341269192        2.8365932697
 H          6.1291655702       -2.0122018895        1.6529645293
 C          4.4472682702       -0.7253219895        2.0852514493
 H          3.6373403704       -0.7951291393        2.8183494295
 H          5.2016020903       -0.0595838793        2.5177970389
 H          6.0896486995       -2.2478091605       -2.1817414307
 H          4.3674640095       -1.9650178305       -1.9491637104
 H          6.0331594994       -0.0040408603       -1.5921150712
 H          6.3455639898       -0.7285902299       -0.0066038411
 O          3.7469436694        0.6405679496       -1.3736714710
 C          2.5443875094        1.3091640095       -1.2152337209
 O          2.1076669292        1.8313206892       -2.2570042109
 H         -0.1893929401       -0.3903459601        0.6993031401
 C         -0.7415870803        0.0635127696       -0.1141932799
 C         -0.4377642604        1.3681363096       -0.4877999603
 C         -1.1577925207        1.9462741792       -1.5236890503
 C         -2.1370988708        1.2227263190       -2.1839772899
 C         -2.4285030306       -0.0778376609       -1.8180692995
 C         -1.7259905804       -0.6592552706       -0.7688212495
 N         -2.0418017202       -1.9692269905       -0.3675605191
 S         -3.6655854701       -2.3354314306       -0.1759699587
 O         -3.7068538499       -3.3708741003        0.8328846316
 O         -4.2369727404       -2.6819645009       -1.4535439884
 C         -4.4138597401       -0.8330668404        0.4312119711
 C         -3.9503447099       -0.3098385201        1.6221866309
 C         -4.4902385599        0.8779646100        2.0873714507
 C         -5.4797204901        1.5192750497        1.3577113807
 C         -5.9396190503        0.9772970594        0.1678857609
 C         -5.4012764703       -0.2093492807       -0.3036546389
 H         -5.7255514304       -0.6628436410       -1.2260595887
 H         -6.7106730504        1.4767749692       -0.3960948291
 H         -5.8938284300        2.4466704098        1.7205750505
 H         -4.1336310497        1.3000436703        3.0132934505
 H         -3.1820555597       -0.8332728999        2.1689151208
 H         -1.4980853300       -2.2982516203        0.4166657709
 H         -3.1813198007       -0.6560310411       -2.3289952692
 H         -2.6808693209        1.6794332188       -2.9965492499
 H         -0.9436602308        2.9578313392       -1.8249620706
 C          0.6614973397        2.0712853598        0.2694625293
 H          0.4464424099        1.9699921001        1.3430081494
 C          0.7988283295        3.5409985097       -0.0614755611
 C         -0.1657878004        4.5256907798        0.5266453388
 C          1.2523883197        4.4865749501        1.0086848385
 H          1.9150342296        5.2938414200        0.7349081682
 H          1.4508899699        4.0741201603        1.9872611386
 H         -0.4788620906        5.3642888697       -0.0762160114
 H         -0.9338150802        4.1404821200        1.1798634191
 H          1.1630318793        3.7162429695       -1.0667518512
 O          2.0086193302        0.5946102704        2.2898807194
