  62
        -98.93137797
 C          2.2646446743       -0.6757898114       -0.1610595976
 C          3.5078986177       -1.0846900322       -0.7034765715
 C          4.7212179634       -0.6280675255       -0.0037661536
 C          4.5893794325        0.1579565645        1.0784089921
 C          5.6854889153        0.7728202935        1.9041454153
 C          6.0133709128        2.1899840658        1.4040225357
 C          7.0516364140        2.2540598906        0.2844844666
 H          7.0934782690        3.2896914095       -0.0605294119
 H          8.0337494875        2.0044166619        0.6914271391
 C          6.7756826579        1.3464926137       -0.9171064930
 H          5.7172105646        1.3950758908       -1.1794475767
 H          7.3373810821        1.7369157064       -1.7679997790
 C          7.1876669497       -0.1136573710       -0.6777785529
 H          7.7992708931       -0.1686623191        0.2225461449
 H          7.8192863008       -0.4511008848       -1.5021412640
 C          6.0261129365       -1.1127870277       -0.5746731020
 H          5.7703785382       -1.4780227261       -1.5743916605
 H          6.3553905397       -1.9849794980        0.0002736833
 H          6.3852176613        2.7802547187        2.2439560514
 H          5.0802000110        2.6502755803        1.0690785566
 H          6.5686131147        0.1408991906        1.9044159446
 H          5.3025808091        0.8440659260        2.9242864148
 O          3.3760982720        0.5582652153        1.5472059581
 C          2.1877008213        0.1664615440        0.9487209335
 O          1.1720661766        0.6349019467        1.4947162723
 O          3.6015543099       -1.7965259801       -1.7397473588
 C          1.0044631652       -1.1449140083       -0.8639212594
 C          0.0355568870       -0.0045593952       -1.0463791461
 C          0.4115995449        1.0739088132       -1.8438963440
 C         -0.4470927631        2.1359456123       -2.0479572407
 C         -1.7090171822        2.1363933330       -1.4794916318
 C         -2.0908320541        1.0692177007       -0.6763717439
 C         -1.2192804611        0.0106185717       -0.4608884126
 H         -1.5361822633       -0.7913164376        0.1845660189
 N         -3.3540330642        1.0455783246       -0.0645050159
 S         -4.1326564014       -0.4428361953        0.0947118857
 O         -3.7100139456       -1.0724816665        1.3201575025
 O         -3.9623135910       -1.2196900772       -1.1131570817
 C         -5.8292481438        0.0878540955        0.2468251110
 C         -6.3109327884        0.4425232722        1.4927595991
 C         -7.6209051770        0.8810689203        1.6043973035
 C         -8.4228922879        0.9576215488        0.4753538051
 C         -7.9263822984        0.5962323655       -0.7681370604
 C         -6.6169402948        0.1579592562       -0.8870516174
 H         -6.1915468734       -0.1435460603       -1.8307761317
 H         -8.5533519311        0.6531234015       -1.6433318331
 H         -9.4421743693        1.2983922875        0.5657029945
 H         -8.0110675360        1.1597858543        2.5699544503
 H         -5.6536580117        0.3575219452        2.3425394794
 H         -3.9747230751        1.7663547904       -0.4057216736
 H         -2.3853661020        2.9613241122       -1.6451598316
 H         -0.1379134249        2.9663902766       -2.6650020142
 H          1.3940364470        1.0685629272       -2.2972183262
 H          1.3487157327       -1.4555281856       -1.8655157158
 C          0.3604792296       -2.3697470164       -0.2319343766
 C          1.1823013141       -3.4040721499        0.4751990009
 C          0.2389060549       -2.5375077517        1.2517150147
 H         -0.6690944215       -2.9750598250        1.6418667724
 H          0.6462286081       -1.7590100696        1.8779389842
 H          0.9301021936       -4.4441693908        0.3335591480
 H          2.2421484704       -3.2189995475        0.5730783764
 H         -0.4700485896       -2.7397257631       -0.8276274067
