  62
        -98.93989910
 C         -2.6348671296       -0.2010232177        0.5597029048
 C         -2.1738953425        0.2457727788       -0.7049057324
 C         -1.9899879235        1.6986822395       -0.8460701492
 C         -2.2377916334        2.5043234534        0.2010415650
 C         -2.0938771706        3.9983334465        0.1931887147
 C         -0.7020882283        4.4433682439        0.6596382655
 C          0.4530086193        3.7249739906       -0.0387112242
 H          1.3792156863        4.1759485126        0.3257230521
 H          0.4719273208        2.6756634355        0.2643620070
 C          0.4228907301        3.8012651564       -1.5712116853
 H          1.4339094659        4.0097372503       -1.9277903703
 H         -0.2132922856        4.6279872031       -1.8918991033
 C         -0.0305290127        2.5126845880       -2.2616120468
 H          0.2315321456        2.5833565247       -3.3213789385
 H          0.5189043049        1.6612306811       -1.8481407823
 C         -1.5321870697        2.2069246492       -2.1834886280
 H         -2.1038129566        3.0904313752       -2.4783243035
 H         -1.7436134059        1.4048136174       -2.8970194530
 H         -0.6199651473        4.2565284521        1.7328529447
 H         -0.6149551562        5.5191761132        0.4936369135
 H         -2.2844643574        4.3660694832       -0.8133751494
 H         -2.8422247901        4.4148575766        0.8702441855
 O         -2.6382431746        2.0367141518        1.4118308963
 C         -2.8117577930        0.6799158862        1.6281072103
 O         -3.1242411109        0.3859086550        2.8008467473
 H         -0.3264731333       -1.1898702867        1.5384982742
 C         -0.3713056843       -1.9958577346        0.8142432321
 C         -1.6099540895       -2.4210727110        0.3502518022
 C         -1.6455123633       -3.4455036173       -0.5856070628
 C         -0.4702744251       -3.9946239418       -1.0703080199
 C          0.7610757532       -3.5298212569       -0.6434294713
 C          0.8026144351       -2.5265670788        0.3118658233
 N          2.0659409026       -1.9837223488        0.7086694976
 S          2.3020694865       -0.5050754288       -0.0895626321
 O          1.5252760601        0.5367814968        0.5499695220
 O          2.0821995897       -0.7157022803       -1.4966510340
 C          4.0391263171       -0.2299228791        0.2065461835
 C          4.4532738192        0.8183014717        1.0038974930
 C          5.8099174975        0.9898110249        1.2341208958
 C          6.7220713420        0.1118167510        0.6695788284
 C          6.2900195141       -0.9374292077       -0.1287233093
 C          4.9361811314       -1.1122578427       -0.3643043035
 H          4.5523187580       -1.9070767194       -0.9817467309
 H          7.0026979933       -1.6177891287       -0.5663045893
 H          7.7765070899        0.2466674582        0.8520303023
 H          6.1477202185        1.8053269026        1.8530767843
 H          3.7074094510        1.4763544451        1.4205772665
 H          2.0722779153       -1.7745454051        1.7001543500
 H          1.6817915900       -3.9175559246       -1.0472621875
 H         -0.5157427012       -4.7776468935       -1.8119510272
 H         -2.5939092941       -3.7858143780       -0.9685898888
 C         -2.8204396522       -1.6811889789        0.8624323794
 H         -2.8176098803       -1.7460629595        1.9636377998
 C         -4.1433943866       -2.2685657480        0.3978611391
 C         -5.3665414466       -1.4093386179        0.2851799937
 C         -4.7294582714       -1.9716119817       -0.9482100717
 H         -5.2412045855       -2.7680796314       -1.4685353091
 H         -4.1801527659       -1.3079866570       -1.5964440772
 H         -5.2532892330       -0.3532854784        0.4844926061
 H         -6.3116446101       -1.8170447215        0.6109470275
 H         -4.2964090231       -3.2711246236        0.7855903089
 O         -1.9455106693       -0.5165103740       -1.6793199003
