  62
        -98.94291531
 C         -2.6381066486       -1.1915366378        0.2485660202
 C         -2.7735960334       -0.3281932507       -0.8655189766
 C         -3.7960913169        0.7229714199       -0.7455559851
 C         -4.5398813973        0.8056078530        0.3717005673
 C         -5.5697176334        1.8619645793        0.6455084127
 C         -4.9514194319        3.0652457167        1.3712010970
 C         -3.6712308808        3.5887405327        0.7199872166
 H         -3.3437660688        4.4557560375        1.2977001000
 H         -2.8897469139        2.8303328387        0.8086755249
 C         -3.8260987309        3.9861890680       -0.7546753654
 H         -4.8812262073        4.1262904818       -0.9922166516
 H         -3.3282029041        4.9450842820       -0.9133037734
 C         -3.2115847018        2.9963974861       -1.7462487494
 H         -2.1796252939        2.7812535351       -1.4567411999
 H         -3.1824388522        3.4738738416       -2.7294694267
 C         -3.9553800321        1.6643626711       -1.9066968311
 H         -5.0117823572        1.8543908360       -2.1063520756
 H         -3.5301708504        1.1486419152       -2.7727517506
 H         -5.6947424376        3.8635420180        1.4102442216
 H         -4.7169621094        2.7681764040        2.3959349809
 H         -6.0154045150        2.1807021663       -0.2947186804
 H         -6.3468849893        1.4281653561        1.2769200453
 O         -4.3985224154       -0.0520729332        1.4130394358
 C         -3.4495270006       -1.0569529390        1.3814547593
 O         -3.4270345284       -1.7666178085        2.4065876425
 H         -0.0756617586       -0.6492386948       -1.1350361006
 C          0.4211078678       -0.9787103869       -0.2343340110
 C         -0.2424253188       -1.8370008492        0.6307239064
 C          0.4092232564       -2.2477587972        1.7877600055
 C          1.6903675079       -1.8064810826        2.0689401050
 C          2.3449545900       -0.9442721663        1.2075572017
 C          1.7024262217       -0.5270971115        0.0492355747
 N          2.3440832351        0.3702453857       -0.8214012346
 S          3.9169677222        0.0375833016       -1.3001201017
 O          4.0884987721        0.7349706687       -2.5557778792
 O          4.1794297493       -1.3830669549       -1.3134026386
 C          4.9173209417        0.8305522480       -0.0583714110
 C          5.8894715934        0.1096475562        0.6069480759
 C          6.6655046234        0.7513857536        1.5597552206
 C          6.4573260613        2.0955923952        1.8278265377
 C          5.4781085883        2.8060120024        1.1493016675
 C          4.6998457246        2.1707592529        0.1949068359
 H          3.9310512474        2.6869788281       -0.3557630804
 H          5.3188782413        3.8511281343        1.3609753481
 H          7.0615854191        2.5929929893        2.5699741577
 H          7.4273317330        0.2010211562        2.0881409298
 H          6.0113924684       -0.9351594060        0.3693677169
 H          1.7749219702        0.6354712424       -1.6126037280
 H          3.3418755204       -0.5956752787        1.4227775250
 H          2.1841859098       -2.1347898242        2.9707932442
 H         -0.1003807496       -2.9098816326        2.4727016151
 C         -1.6332333156       -2.3324248063        0.3104116012
 H         -1.9610872223       -2.9653319773        1.1457595615
 C         -1.6211080287       -3.1784869022       -0.9490734618
 C         -1.1081296466       -4.5836258283       -0.8739365351
 C         -2.5723354480       -4.3289736955       -1.0685209658
 H         -3.0110688825       -4.5366425711       -2.0329361404
 H         -3.2372031675       -4.5152683561       -0.2374092533
 H         -0.7806164001       -4.9458067721        0.0888639836
 H         -0.5362496201       -4.9678934014       -1.7047411802
 H         -1.4108768556       -2.6131238663       -1.8473784059
 O         -2.0874836505       -0.4050133792       -1.9214351240
