  62
        -98.93820828
 C         -0.8961357846       -1.8560725330        0.4783389889
 C         -1.4723466879       -0.8987053754        1.3508149494
 C         -2.6227582002       -0.1455357188        0.8360108297
 C         -3.0813615591       -0.4138206895       -0.3990260406
 C         -4.1705382614        0.3386417775       -1.1080720802
 C         -3.5963195655        1.6448000097       -1.6956100993
 C         -4.1541960998        2.9216926375       -1.0647438685
 H         -3.5196545624        3.7465586298       -1.3966702979
 H         -5.1601538503        3.0998503045       -1.4520926186
 C         -4.2311786201        2.9363965262        0.4652632815
 H         -4.3717947035        3.9766816456        0.7664420821
 H         -5.1199866984        2.3940620931        0.7920584010
 C         -3.0094714784        2.3699359297        1.2006764213
 H         -2.8067703306        3.0034490798        2.0670487518
 H         -2.1272228784        2.4142217230        0.5585927915
 C         -3.1930363638        0.9292126587        1.7180652503
 H         -2.6669365137        0.8248788598        2.6716283103
 H         -4.2529440232        0.7354810652        1.9029594600
 H         -3.7968649555        1.6798841598       -2.7680463393
 H         -2.5085481155        1.6289395832       -1.5852748891
 H         -4.9852695522        0.5518827644       -0.4195779102
 H         -4.5440077692       -0.3025339532       -1.9071238307
 O         -2.5324572859       -1.3669851272       -1.1931332011
 C         -1.3841389537       -2.0519645337       -0.8148917113
 O         -0.9264028712       -2.7892324316       -1.7075309418
 O         -1.0185160788       -0.6593205248        2.5029654996
 C          0.4235975473       -2.4759580590        0.9064096087
 C          1.4801680863       -2.1110879349       -0.1098667809
 C          2.4460332892       -2.9799183215       -0.5978246113
 C          3.3693946479       -2.5374568179       -1.5315591808
 C          3.3540389338       -1.2349269376       -1.9959872200
 C          2.3866120509       -0.3578739311       -1.5149486395
 C          1.4806549322       -0.8000739946       -0.5685399800
 H          0.7212723499       -0.1216257773       -0.2156278797
 N          2.2970531967        0.9580116590       -1.9787513687
 S          1.4592454927        2.1494706457       -1.1748624680
 O          0.0424250236        1.8786180511       -1.1742523585
 O          1.8658209489        3.3666338275       -1.8451932371
 C          2.1080911424        2.1485589167        0.4865069521
 C          3.4498664015        2.4376167209        0.6463515925
 C          3.9938821213        2.4216498418        1.9196701626
 C          3.1917504821        2.1142839185        3.0088427423
 C          1.8460519830        1.8338433043        2.8336024718
 C          1.2961543332        1.8527338734        1.5614368817
 H          0.2532055740        1.6275290401        1.4003321014
 H          1.2152480037        1.5854417917        3.6721896715
 H          3.6159437820        2.0944229592        4.0002953723
 H          5.0394249406        2.6441088351        2.0595682329
 H          4.0394445809        2.6805279634       -0.2225177472
 H          3.0560589157        1.2964786518       -2.5476519083
 H          4.0667399329       -0.9026952548       -2.7347682796
 H          4.1121707602       -3.2234555252       -1.9097519012
 H          2.4654310225       -4.0055454916       -0.2676814620
 H          0.6720143954       -1.9386259488        1.8385343891
 C          0.3892152120       -3.9520793394        1.2685158977
 C         -0.9033022858       -4.6509923138        1.5640834970
 C         -0.1223219644       -5.0082063104        0.3368578669
 H          0.3876600487       -5.9605053887        0.3157859464
 H         -0.4981145553       -4.6860587210       -0.6207852029
 H         -0.9337915836       -5.3531544344        2.3839185265
 H         -1.8158608976       -4.0862590666        1.4359764372
 H          1.2313101628       -4.2325088671        1.8941305777
