  62
        -98.94828496
 C         -1.3214329476       -1.5595755897        0.2231957330
 C         -1.6438073447       -0.5888097858        1.2022648770
 C         -2.9136881682        0.1183823968        1.0123113286
 C         -3.6948247557       -0.1855918126       -0.0404900683
 C         -5.0476653225        0.4023317949       -0.3389582797
 C         -5.0028737311        1.7305737845       -1.1056244463
 C         -4.5260918473        2.9322201867       -0.2893620717
 H         -5.1038611306        2.9974407745        0.6332773375
 H         -4.7443781709        3.8272610506       -0.8752292183
 C         -3.0273274850        2.9130385943        0.0402425730
 H         -2.5899912236        3.8939970093       -0.1600168441
 H         -2.5103901273        2.2086841002       -0.6161975999
 C         -2.6918737193        2.5637824850        1.4899768203
 H         -3.0590874896        3.3515562809        2.1522838433
 H         -1.6018374349        2.5324896602        1.5724282562
 C         -3.2567266607        1.2194467990        1.9689413508
 H         -4.3365497167        1.2920143082        2.0997691589
 H         -2.8011462621        0.9799738774        2.9330595779
 H         -6.0149665343        1.9367217667       -1.4616899204
 H         -4.3597324327        1.6086691709       -1.9803725686
 H         -5.5994522583        0.5376670967        0.5917528132
 H         -5.5745024325       -0.3310021285       -0.9534801433
 O         -3.3431183231       -1.1145068283       -0.9685272680
 C         -2.1311663215       -1.7875348134       -0.8887543200
 O         -1.9083763296       -2.5524647680       -1.8465430825
 O         -0.9057647755       -0.3325622997        2.1922088191
 C         -0.0029229676       -2.3016034679        0.3402460118
 C          0.9486984928       -1.8374363333       -0.7358500094
 C          1.7443893113       -2.6902754294       -1.4897439864
 C          2.6164827755       -2.1767586397       -2.4349027052
 C          2.7417404135       -0.8123155728       -2.6240435444
 C          1.9546464099        0.0495070615       -1.8685140110
 C          1.0589094811       -0.4699903428       -0.9491442424
 H          0.4306719212        0.2087703403       -0.3936326703
 N          2.0551866961        1.4432649810       -1.9990074522
 S          1.9437953986        2.3814810333       -0.6138320745
 O          0.5690794801        2.5212542502       -0.2096026271
 O          2.6229340507        3.6118299898       -0.9649659537
 C          2.8968818507        1.4967847176        0.6083492191
 C          4.2657426730        1.4548999972        0.4213110578
 C          5.0464889819        0.7379090681        1.3118289516
 C          4.4468124645        0.0717494793        2.3702307831
 C          3.0739026017        0.1286956337        2.5475740692
 C          2.2857558600        0.8471032105        1.6608418456
 H          1.2140315767        0.8931180288        1.7805603621
 H          2.6001180283       -0.3860474141        3.3684623486
 H          5.0517502581       -0.4930170120        3.0619485631
 H          6.1153838275        0.6972259841        1.1777996462
 H          4.6943602834        1.9953686370       -0.4071313089
 H          2.7948444875        1.7615970954       -2.6076431167
 H          3.4331601827       -0.4157007464       -3.3514565724
 H          3.2194478459       -2.8505160170       -3.0243545037
 H          1.6766086633       -3.7556764255       -1.3441077160
 H          0.4198803294       -1.9832873229        1.3059462961
 C         -0.2097328265       -3.8000785198        0.3730126023
 C          0.7641512680       -4.6755754299        1.1021828401
 C         -0.6047217869       -4.4463025554        1.6662280653
 H         -1.3188778868       -5.2555279681        1.6405700353
 H         -0.7031340678       -3.8065307211        2.5311835337
 H          0.9903977086       -5.6480098722        0.6916897671
 H          1.5991094260       -4.1958573989        1.5899141057
 H         -0.6643282213       -4.1798028899       -0.5345128008
