  62
        -98.93808410
 C          1.8435690040        0.7296061768        0.4812820203
 C          2.5164563103        0.2072955241       -0.6484189795
 C          3.6032126392       -0.7499625475       -0.3727739713
 C          3.8665339995       -1.1058805473        0.8959375344
 C          4.8939761291       -2.0874697895        1.4019270614
 C          6.2911686809       -2.0408850323        0.7678114464
 C          6.7569162081       -0.6477265798        0.3200632203
 H          6.0885381940        0.1171429221        0.7190982977
 H          7.7507003748       -0.4579231054        0.7298379571
 C          6.8423001044       -0.5073768997       -1.2017563466
 H          7.5063997181        0.3267376020       -1.4406971511
 H          7.2951753836       -1.4127559650       -1.6117886293
 C          5.5146137988       -0.2465265550       -1.9122152878
 H          5.6957643283       -0.2852679666       -2.9890143394
 H          5.1638846546        0.7632270910       -1.6826068024
 C          4.3774269540       -1.2227413169       -1.5692483175
 H          3.6703977377       -1.2229760344       -2.4035207419
 H          4.7530482583       -2.2340907052       -1.4333406861
 H          6.9868115403       -2.4360398161        1.5101051295
 H          6.3264830989       -2.7173300652       -0.0850913773
 H          4.9719655570       -1.8891265548        2.4736832252
 H          4.4845859740       -3.0959671521        1.2908874649
 O          3.1571182826       -0.6135017305        1.9518469815
 C          2.1402356971        0.3087784338        1.7758557757
 O          1.5780127867        0.6637883005        2.8329206285
 H         -0.4883162869       -0.5326413394        0.8874883614
 C         -0.9215332939       -0.0879382183       -0.0004880386
 C         -0.4098030014        1.1171616864       -0.4679999484
 C         -0.9833608801        1.6866383537       -1.5961860328
 C         -2.0195231163        1.0455318222       -2.2547523660
 C         -2.5131448860       -0.1619330082       -1.7981920571
 C         -1.9602456700       -0.7294524221       -0.6561572205
 N         -2.4732103649       -1.9430827101       -0.1671398942
 S         -4.1377680153       -2.1063139033       -0.0900438435
 O         -4.3794665975       -3.0292132633        0.9969943289
 O         -4.6442841512       -2.5087590944       -1.3785822811
 C         -4.7537053870       -0.4814913483        0.3169874283
 C         -5.6204991616        0.1616772993       -0.5428414050
 C         -6.0629300533        1.4347460664       -0.2206364523
 C         -5.6293217969        2.0410208147        0.9478785910
 C         -4.7611775574        1.3801571472        1.8037167901
 C         -4.3177298333        0.1063315257        1.4880243489
 H         -3.6449224174       -0.4334611543        2.1355894459
 H         -4.4239593656        1.8523158781        2.7126075434
 H         -5.9691191833        3.0342203060        1.1955325572
 H         -6.7396350648        1.9500377278       -0.8828967674
 H         -5.9283505801       -0.3451102348       -1.4428513550
 H         -2.0331632399       -2.2611379168        0.6834707788
 H         -3.3085625839       -0.6798771459       -2.3090439185
 H         -2.4469052938        1.4923387323       -3.1391599681
 H         -0.6124387471        2.6266832176       -1.9688676998
 C          0.7266157741        1.7432481145        0.3042275398
 H          0.3609102180        1.9670408643        1.3170353214
 C          1.2585573846        3.0183401246       -0.3142609126
 C          0.5684696916        4.3226305268       -0.0544216841
 C          1.8989552731        4.0404006221        0.5744665256
 H          2.7669347221        4.5694358447        0.2103718847
 H          1.9320863198        3.8272291387        1.6333566264
 H          0.5240339268        5.0505299045       -0.8502581288
 H         -0.3042564136        4.3080043458        0.5805066713
 H          1.7022266851        2.8563101934       -1.2895082181
 O          2.2253300351        0.5159024351       -1.8322139392
