  62
        -98.94600802
 C         -1.3672335602        1.1647306700        0.0576020704
 C         -2.1879896873        0.5933998864       -0.9518102857
 C         -2.9311946757       -0.6181299968       -0.5847499176
 C         -2.7907903789       -1.1220838472        0.6544411334
 C         -3.5274541200       -2.3168810931        1.1853904735
 C         -4.8411540837       -1.9000989946        1.8616896570
 C         -5.6968092443       -0.9532867809        1.0198243208
 H         -6.6099414651       -0.7526737108        1.5844204135
 H         -5.1727976853       -0.0010686039        0.9094760177
 C         -6.0631646446       -1.4936006534       -0.3696406099
 H         -5.9210391320       -2.5745889491       -0.3959967032
 H         -7.1229487587       -1.3022537808       -0.5508715065
 C         -5.2909025565       -0.8518118087       -1.5239445831
 H         -5.7743481348       -1.1442361792       -2.4597773123
 H         -5.3572622195        0.2364511838       -1.4482666097
 C         -3.8106762570       -1.2390095824       -1.6328509837
 H         -3.7151394624       -2.3264981941       -1.6221060867
 H         -3.4401528225       -0.8687874690       -2.5929262586
 H         -4.6026980654       -1.3997504390        2.8032649553
 H         -5.4118800734       -2.8015292324        2.0922045389
 H         -3.7312587919       -3.0058723580        0.3678578229
 H         -2.8945658285       -2.8163923526        1.9213246023
 O         -1.9820224175       -0.5625677145        1.5880836760
 C         -1.2510307928        0.5867772267        1.3215497874
 O         -0.5588552136        0.9611699817        2.2900305281
 H          1.3608331273        1.6280794837        1.3826757561
 C          1.6992417425        1.6177707099        0.3578825941
 C          0.8346019101        2.0172784303       -0.6510833124
 C          1.2794557633        1.9619585151       -1.9670532774
 C          2.5564623324        1.5170467442       -2.2630761791
 C          3.4072290813        1.0973609240       -1.2560382286
 C          2.9655719502        1.1403493254        0.0598523797
 N          3.7914452875        0.6326239081        1.0851869951
 S          4.2749158773       -0.9564094677        0.8470866570
 O          4.3836544815       -1.5402041836        2.1656537880
 O          5.4825854506       -0.9679939160        0.0590018923
 C          2.9544215514       -1.7200330181       -0.0843319779
 C          3.2175617759       -2.2312534743       -1.3388696924
 C          2.1787504333       -2.7801979468       -2.0730216307
 C          0.8975049835       -2.8025431919       -1.5450233201
 C          0.6497632899       -2.2891977501       -0.2815078847
 C          1.6847448021       -1.7419124938        0.4588355605
 H          1.5087705540       -1.3319828362        1.4416088524
 H         -0.3489567254       -2.3009190300        0.1265610094
 H          0.0842785548       -3.2187319951       -2.1181676582
 H          2.3686475031       -3.1815762749       -3.0552797558
 H          4.2268350681       -2.1845771465       -1.7140511116
 H          3.3759421747        0.7318083664        2.0013977161
 H          4.3954330411        0.7208061656       -1.4657979411
 H          2.8880106739        1.4826319234       -3.2893058728
 H          0.6064884778        2.2495890779       -2.7613688562
 C         -0.5856279806        2.4124197143       -0.3274892254
 H         -1.0542007773        2.7706648271       -1.2534290548
 C         -0.6570703434        3.5177795382        0.7057190211
 C         -0.3229435537        4.9183889870        0.2911070511
 C         -1.7409165812        4.5469302255        0.6027662001
 H         -2.1856606177        4.9189607010        1.5136379318
 H         -2.4375108081        4.4603146865       -0.2183692802
 H          0.2092967431        5.5484897008        0.9869845979
 H         -0.0581286634        5.0832528732       -0.7423067079
 H         -0.3687053628        3.2056952041        1.7008374180
 O         -2.2962933972        1.0809717498       -2.1070309688
