  62
        -98.94500977
 C          2.1846646010        0.8339108299       -0.1227507787
 C          3.0100129608        0.5213063790        0.9904415611
 C          3.7936698606       -0.7136770011        0.8953974603
 C          3.6734524607       -1.4947328903       -0.1929854703
 C          4.3761733605       -2.8041000402       -0.4283383612
 C          5.7965280706       -2.6593850000       -0.9919926208
 C          6.8408158605       -2.1472966309        0.0008263997
 H          6.8052329503       -2.7523930016        0.9072578793
 H          7.8199394206       -2.3024494707       -0.4565514002
 C          6.6949402207       -0.6628228711        0.3634741108
 H          7.6732829508       -0.1792784912        0.3182194414
 H          6.0592215709       -0.1687336605       -0.3748350189
 C          6.1257528905       -0.4034384521        1.7583357309
 H          6.8198208203       -0.7792080428        2.5131966808
 H          6.0317815907        0.6767967478        1.8946265717
 C          4.7486720904       -1.0332549321        2.0056728602
 H          4.3386070203       -0.6133270727        2.9272920005
 H          4.8437481802       -2.1123589422        2.1252312294
 H          6.1098913805       -3.6463317797       -1.3401121315
 H          5.7617082909       -1.9966448393       -1.8598029003
 H          4.4076629603       -3.3740262809        0.5008376684
 H          3.7714786905       -3.3546536595       -1.1524896417
 O          2.8539918409       -1.1766934393       -1.2281517002
 C          2.1039442911       -0.0088065592       -1.2311240294
 O          1.4301018512        0.1378687417       -2.2718350194
 O          3.0881388207        1.2470430582        2.0166712017
 C          1.3694864212        2.1147788400       -0.0294126779
 C         -0.0581304389        1.7830319399        0.3338151516
 C         -0.5358425391        2.0209986890        1.6176888317
 C         -1.8281901492        1.6694933189        1.9657304712
 C         -2.6669053691        1.0670522098        1.0450315807
 C         -2.1939515090        0.8126130907       -0.2353929095
 C         -0.9051553389        1.1837591307       -0.5878260990
 H         -0.5392178287        0.9621440014       -1.5791233291
 N         -3.0311421489        0.1735981815       -1.1722061301
 S         -3.6460254292       -1.3248365088       -0.7158333813
 O         -2.7835607795       -1.9839144396        0.2389261483
 O         -3.8988791191       -2.0319192178       -1.9525751319
 C         -5.2054517793       -0.9210720291        0.0445991987
 C         -5.4581625596       -1.3001239701        1.3483846684
 C         -6.6813444096       -0.9760902403        1.9149897185
 C         -7.6247788794       -0.2836676296        1.1714852788
 C         -7.3564409591        0.0870363914       -0.1379565908
 C         -6.1362341291       -0.2343707484       -0.7104520409
 H         -5.8882873589        0.0299932423       -1.7248053706
 H         -8.0925406189        0.6251992219       -0.7130940505
 H         -8.5749778894       -0.0316816298        1.6152335689
 H         -6.8917274698       -1.2639219510        2.9325311882
 H         -4.6918023597       -1.8327992706        1.8888056981
 H         -2.6036632188        0.0993019121       -2.0854009001
 H         -3.6717862092        0.7823957397        1.3112673303
 H         -2.1851961393        1.8623744382        2.9658752913
 H          0.1231873409        2.4661270584        2.3489872422
 H          1.8072873611        2.6689294193        0.8116064226
 C          1.4590626415        2.9786803309       -1.2710662672
 C          1.1003729717        4.4301146309       -1.1711632362
 C          2.5300979217        4.0225415908       -1.3590701063
 H          2.9983566619        4.1995315015       -2.3157321961
 H          3.2033673116        4.1196712901       -0.5198448661
 H          0.5837580019        4.8905782816       -1.9990949859
 H          0.8037312416        4.8046622102       -0.2032638460
 H          1.2029073916        2.4566673816       -2.1836675877
