  62
        -98.93952511
 C         -2.3580258799       -0.1328093882        0.3877444787
 C         -1.3290905409       -0.8276142595        1.0657673588
 C         -1.1264820918       -2.2313707594        0.6761044479
 C         -1.8524214317       -2.7603874881       -0.3229363029
 C         -1.7545833925       -4.1618796478       -0.8624497538
 C         -0.4124126124       -4.5124910484       -1.5337450634
 C          0.5845888665       -5.2233865199       -0.6102913133
 H          0.0341993157       -5.7031142900        0.2000923360
 H          1.0759389862       -6.0211333799       -1.1711246636
 C          1.6922669469       -4.3433275412       -0.0239035821
 H          2.4486689175       -4.1634241712       -0.7916267815
 H          2.1688548560       -4.9053119621        0.7827266978
 C          1.2614712977       -2.9766796412        0.5134729187
 H          2.0869673277       -2.5776588323        1.1079941694
 H          1.1198964587       -2.2782505305       -0.3155059909
 C         -0.0246762928       -2.9870205608        1.3631761779
 H         -0.3384806437       -4.0080904607        1.5750115670
 H          0.1581821671       -2.4780689516        2.3118410484
 H          0.0314982786       -3.6051072385       -1.9452330125
 H         -0.6359300825       -5.1732129476       -2.3730341140
 H         -1.9575595535       -4.8700575782       -0.0559884445
 H         -2.5583782822       -4.2508098466       -1.5960522243
 O         -2.8164574907       -2.0535898369       -0.9734876729
 C         -3.0841847799       -0.7387538069       -0.6418536921
 O         -3.9931955591       -0.2172351557       -1.3209781022
 H         -0.0172502988        1.2718943200        0.2904440310
 C         -0.4802054278        2.0073682308       -0.3438479187
 C         -1.8535019077        2.1958531819       -0.2860500693
 C         -2.4309294665        3.1623505529       -1.0997129390
 C         -1.6498387854        3.9058971329       -1.9668303380
 C         -0.2899688255        3.6741579819       -2.0619393974
 C          0.2980722532        2.7087509708       -1.2507739478
 N          1.6710098831        2.4358965798       -1.3397399372
 S          2.2571964218        0.8564875593       -1.3270896880
 O          3.2294791424        0.8167433993       -2.4027296575
 O          1.1869080511       -0.1067802998       -1.4070431793
 C          3.1409927409        0.7629157875        0.2178210824
 C          4.4625324212        1.1702959564        0.2124394734
 C          5.1834822405        1.1437160150        1.3942827238
 C          4.5738395095        0.7129264347        2.5631523031
 C          3.2489925292        0.3075273857        2.5526249821
 C          2.5204686099        0.3319538372        1.3722377817
 H          1.4883922797        0.0176506180        1.3566873709
 H          2.7665122985       -0.0281320645        3.4569141216
 H          5.1326131590        0.6912774535        3.4855990734
 H          6.2148345008        1.4577691942        1.4011035446
 H          4.8998384620        1.4848362768       -0.7207193161
 H          2.1502404039        2.9753591099       -2.0464024966
 H          0.3142292253        4.2285129119       -2.7644999967
 H         -2.1080820445        4.6553752637       -2.5943332677
 H         -3.4998239364        3.3133612637       -1.0673230294
 C         -2.6969261489        1.3320077719        0.6232971196
 H         -3.7447939486        1.4511162130        0.3133887591
 C         -2.5703981193        1.7834045108        2.0642533100
 C         -3.3723188186        2.9601645011        2.5294874804
 C         -3.7207287600        1.5811136310        3.0018377692
 H         -3.5077337008        1.3127843501        4.0254179091
 H         -4.6119840302        1.1159211520        2.6057670784
 H         -4.0320561579        3.4320088121        1.8171744004
 H         -2.9199207285        3.6447821502        3.2301454311
 H         -1.5742942196        1.6610452697        2.4669997104
 O         -0.5965949110       -0.3276852708        1.9614916095
