  62
        -98.94359010
 C         -2.5596066692       -0.0074114679       -0.1470036661
 C         -2.4255896657       -1.1447178086       -0.9821621172
 C         -1.9493187676       -2.3726093298       -0.3382748238
 C         -1.6684797151       -2.3672970037        0.9770203852
 C         -1.1672896904       -3.5346834810        1.7827756756
 C          0.3549562522       -3.7141256202        1.7052198157
 C          0.8684525584       -4.2947536121        0.3869905673
 H          1.9044404086       -4.5978340368        0.5506885995
 H          0.2997789893       -5.1913902810        0.1366765575
 C          0.8272040103       -3.3101092539       -0.7897727953
 H          0.7450999857       -2.2876747290       -0.4115519204
 H          1.7697442544       -3.3567902803       -1.3415269292
 C         -0.2932611703       -3.5609870976       -1.7997549736
 H         -0.2487891040       -2.7664859085       -2.5497657484
 H         -0.1232013116       -4.5144680019       -2.3061089655
 C         -1.7062349894       -3.5736906108       -1.2017394119
 H         -2.4249133312       -3.5424522867       -2.0247855824
 H         -1.8646097626       -4.4893674890       -0.6319015538
 H          0.8264287774       -2.7431559741        1.8780898719
 H          0.6495589002       -4.3840733342        2.5165095719
 H         -1.4403764613       -3.3358266738        2.8213412103
 H         -1.6639422486       -4.4498914397        1.4590580484
 O         -1.8271521934       -1.2636151484        1.7507961209
 C         -2.2081578820       -0.0467194469        1.2043614714
 O         -2.2150858311        0.8891082521        2.0265609069
 O         -2.6862187076       -1.1305412544       -2.2167330690
 C         -2.8962281399        1.3193573833       -0.8097319329
 C         -1.8274310529        2.3112495116       -0.4230104120
 C         -2.0663493124        3.5425317873        0.1697968988
 C         -1.0054999233        4.3384911739        0.5693279654
 C          0.3014681392        3.9174224592        0.4105603337
 C          0.5497553385        2.6907345834       -0.1971926761
 C         -0.5110262066        1.9206986066       -0.6370416375
 H         -0.3112260954        0.9686614331       -1.1088267369
 N          1.8621868673        2.2188735363       -0.3832086728
 S          2.1009136349        0.5452809352       -0.3556902821
 O          1.8060654082        0.0255155214       -1.6679182190
 O          1.3977923761       -0.0564108746        0.7545961923
 C          3.8614364505        0.4825601008       -0.0802096868
 C          4.7044628800        0.7364073910       -1.1459107444
 C          6.0738723917        0.7231505101       -0.9346490524
 C          6.5750599431        0.4572682833        0.3312538407
 C          5.7170343319        0.2012298288        1.3900701929
 C          4.3458899633        0.2149760531        1.1857264056
 H          3.6397041318        0.0163467852        1.9762753099
 H          6.1087053881       -0.0087655967        2.3722746432
 H          7.6412540774        0.4469510435        0.4933255590
 H          6.7439870672        0.9189429163       -1.7560305076
 H          4.2676386616        0.9275032228       -2.1121112894
 H          2.5377567980        2.7029837791        0.1923584519
 H          1.1232279100        4.5244207561        0.7590372868
 H         -1.2019543496        5.2906884409        1.0386206538
 H         -3.0787583465        3.8643488309        0.3510191757
 H         -2.7932769623        1.1132640530       -1.8894013873
 C         -4.3158979352        1.8189940198       -0.6009249570
 C         -5.4297912503        0.8628796600       -0.2978815601
 C         -4.9783557947        1.8410885810        0.7426538195
 H         -5.6278543188        2.6722119658        0.9761450924
 H         -4.4110417740        1.4770016031        1.5839772106
 H         -6.3854925985        1.0186452311       -0.7754929751
 H         -5.1691027130       -0.1776075970       -0.1666510297
 H         -4.5574198333        2.6364041577       -1.2738874578
