  62
        -98.94173362
 C         -1.7179182939       -0.1564706370        0.4207047935
 C         -2.8252548296       -0.9094906814        0.8903688283
 C         -4.1415595562       -0.2667384971        0.7872425448
 C         -4.2212549938        0.9913210648        0.3181895921
 C         -5.4995528299        1.7489367252        0.1083492937
 C         -6.0419266125        1.5391449475       -1.3123663812
 C         -6.1028610228        0.0728101422       -1.7407754634
 H         -5.0858093122       -0.3193821035       -1.8144586114
 H         -6.5297432083        0.0455682971       -2.7457242275
 C         -6.9274780331       -0.8277241481       -0.8103183998
 H         -7.5663470109       -1.4694179574       -1.4207662993
 H         -7.5823749734       -0.2163027637       -0.1885386000
 C         -6.0949546583       -1.7487502258        0.0836067580
 H         -5.3726888615       -2.2964819407       -0.5272259965
 H         -6.7671106621       -2.4846503255        0.5327283286
 C         -5.3380101842       -1.0623158090        1.2275453541
 H         -4.9507262877       -1.8446620777        1.8867949534
 H         -6.0258985629       -0.4383410462        1.8016252205
 H         -5.3949910790        2.0734524174       -2.0122408042
 H         -7.0394676381        1.9785862938       -1.3694516240
 H         -6.2345611298        1.4213343979        0.8410820141
 H         -5.2983635335        2.8110700289        0.2580130496
 O         -3.1334121848        1.7067504344       -0.0615566288
 C         -1.8554893344        1.1572504393       -0.0306434826
 O         -0.9675136394        1.9393823304       -0.4160789009
 H          1.8067050402        0.4263296021       -0.7153155193
 C          1.7170369272        0.6424724128        0.3353594542
 C          0.6680100580        0.1216281785        1.0751086205
 C          0.5521938917        0.4816954145        2.4155964708
 C          1.4585380003        1.3473373489        2.9953291500
 C          2.5140624648        1.8546799285        2.2573681820
 C          2.6370321852        1.5033967243        0.9190208164
 N          3.6937868968        1.9996929395        0.1448527905
 S          4.3678809311        1.0678065879       -1.0608620703
 O          5.7129361597        1.5853731115       -1.2034479552
 O          3.5590931811        1.0998079713       -2.2530658510
 C          4.4239236939       -0.5930709491       -0.4076539359
 C          5.0376474216       -0.8050843067        0.8111498632
 C          5.0783139436       -2.0901734772        1.3269094765
 C          4.5109013706       -3.1379494683        0.6178960239
 C          3.9071071319       -2.9111002893       -0.6089124378
 C          3.8611168458       -1.6267118064       -1.1276945413
 H          3.3954248057       -1.4041284488       -2.0746644349
 H          3.4686384505       -3.7274051030       -1.1609384344
 H          4.5400528403       -4.1374446691        1.0221551408
 H          5.5498760414       -2.2708608354        2.2793527927
 H          5.4769598058        0.0276133750        1.3355601395
 H          4.3788083475        2.5479025933        0.6423620248
 H          3.2256061914        2.5297367394        2.7078745375
 H          1.3496891117        1.6250460346        4.0328909730
 H         -0.2703724349        0.0825399974        2.9933220251
 C         -0.3520857550       -0.8165415206        0.4845903338
 H         -0.4897699220       -1.6532193710        1.1899459819
 C          0.1055130106       -1.4308836795       -0.8296071532
 C         -0.8795757557       -1.9977513786       -1.8061123047
 C         -0.1110937983       -0.7588375936       -2.1507490152
 H          0.6707140030       -0.8203325589       -2.8944660593
 H         -0.6282459650        0.1882330588       -2.1531918851
 H         -1.9296412207       -1.8970376440       -1.5728339074
 H         -0.6312013935       -2.9177150376       -2.3133186900
 H          1.0361759886       -1.9779147378       -0.7113441090
 O         -2.7154506309       -2.0661564924        1.3770107994
