  62
        -98.94465184
 C          2.6595602770       -1.2868704210       -0.1217911128
 C          2.5509122201       -0.2901068630        0.8784457796
 C          3.5097927726        0.8183753687        0.7799953221
 C          4.4334659297        0.8254403900       -0.1977442186
 C          5.4954650980        1.8700723271       -0.4086222519
 C          5.0171595762        3.0960500018       -1.1983130635
 C          4.0806015653        4.0350660057       -0.4370039834
 H          4.5316103444        4.3006994351        0.5195602834
 H          3.9980502164        4.9517309774       -1.0241933314
 C          2.6714633502        3.4715953682       -0.2040502532
 H          2.4956576935        2.6308453698       -0.8795639294
 H          1.9265516250        4.2328911861       -0.4468664300
 C          2.3977435848        3.0166932966        1.2296658723
 H          1.3854220066        2.6036445772        1.2682254036
 H          2.4329653741        3.8784186411        1.9003814792
 C          3.3713340694        1.9513756445        1.7513656331
 H          4.3432067553        2.3996865912        1.9568768004
 H          2.9677631879        1.5455354287        2.6823220548
 H          4.5247339382        2.7533888873       -2.1111875702
 H          5.9046319874        3.6617925723       -1.4906805460
 H          6.2964585645        1.3883351874       -0.9733523708
 H          5.8922232172        2.1888517864        0.5555435730
 O          4.5202259550       -0.1639006486       -1.1257194863
 C          3.6221085198       -1.2170116410       -1.1324119426
 O          3.7872938703       -2.0237219051       -2.0690077180
 O          1.7116341160       -0.3151673099        1.8173545311
 C          1.6954584721       -2.4624513722       -0.1799604803
 C          0.3342448206       -1.9205310802       -0.5421664254
 C          0.0334480915       -1.6777525321       -1.8796641319
 C         -1.1734705799       -1.1081452574       -2.2389968072
 C         -2.0996622045       -0.7546379334       -1.2725187991
 C         -1.8004727872       -0.9751630317        0.0644345461
 C         -0.5994547750       -1.5743920148        0.4215407090
 H         -0.3760536722       -1.7289654544        1.4650420136
 N         -2.7250075219       -0.5998730537        1.0551435571
 S         -3.3733543282        0.9479683438        0.9754282656
 O         -2.4890508750        1.8688607429        0.2996897567
 O         -3.7342798292        1.2794093907        2.3367988096
 C         -4.8643729238        0.7228790526        0.0263518523
 C         -5.7834876953       -0.2071499883        0.4713264076
 C         -6.9510482243       -0.3932666707       -0.2511605764
 C         -7.1801110874        0.3510297567       -1.3989428412
 C         -6.2496815898        1.2838193177       -1.8304716948
 C         -5.0793448965        1.4744170682       -1.1121307428
 H         -4.3253431832        2.1849746308       -1.4121016792
 H         -6.4294619968        1.8622312992       -2.7224706789
 H         -8.0891790840        0.2037134743       -1.9603372418
 H         -7.6772710843       -1.1171626709        0.0817146527
 H         -5.5687169428       -0.7614819384        1.3695316599
 H         -2.4013931838       -0.7948147018        1.9922421698
 H         -3.0366795391       -0.2966135840       -1.5440255169
 H         -1.3948294620       -0.9313524323       -3.2806636330
 H          0.7683943363       -1.9284744995       -2.6323306101
 H          2.0422131149       -3.0948325700       -1.0077291569
 C          1.7150254359       -3.2780653054        1.0956883581
 C          1.1032868815       -4.6458571851        1.0978128721
 C          2.5916841550       -4.4901227074        1.1736848340
 H          3.0873314375       -4.7066091335        2.1082033574
 H          3.1782976845       -4.7392694824        0.3014627744
 H          0.5751803756       -4.9741672584        1.9799050088
 H          0.6778668245       -5.0009581662        0.1714291676
 H          1.6243862453       -2.6788836166        1.9928791451
