  62
        -98.93587138
 C          1.3000076651        1.5550224130        0.1951200359
 C          2.2482967402        0.9579002256        1.0610561781
 C          3.1886772448       -0.0148297415        0.4702442329
 C          3.0560008454       -0.3298695340       -0.8310593661
 C          3.9044077274       -1.2561325480       -1.6627868673
 C          3.6352971279       -2.7446999918       -1.3932851432
 C          3.4771067384       -3.1110162689        0.0798103356
 H          2.6741189121       -2.5133982076        0.5148896657
 H          3.1725895050       -4.1595630502        0.1334653673
 C          4.7406234443       -2.9554469329        0.9226122210
 H          5.5321000479       -3.5798400314        0.5019752233
 H          4.5142925253       -3.3359820252        1.9219234788
 C          5.2738426949       -1.5290814675        1.0693103352
 H          5.7981488023       -1.2101347862        0.1723985929
 H          6.0152761868       -1.5400869955        1.8736275036
 C          4.2220873987       -0.4955822481        1.4600559878
 H          3.6638122069       -0.8615095085        2.3295138956
 H          4.7351270604        0.4083622132        1.8106267181
 H          4.4496508000       -3.3256199839       -1.8297209890
 H          2.7139093378       -3.0182321106       -1.9122298931
 H          4.9546892289       -1.0207757255       -1.5141849587
 H          3.6645728767       -1.0434181428       -2.7071769702
 O          2.0521921612        0.1827364767       -1.5973632927
 C          1.1609234297        1.1364208534       -1.1283229209
 O          0.3234454063        1.4983067006       -1.9737180650
 O          2.3226832553        1.2341100729        2.2889719158
 C          0.4124915076        2.6439338754        0.7708460189
 C         -1.0263179081        2.4272207139        0.3815309553
 C         -1.6830154132        3.2106863398       -0.5585666897
 C         -2.9960695029        2.9425003140       -0.9023780649
 C         -3.6860168012        1.9011776397       -0.3089078550
 C         -3.0394375631        1.1132562926        0.6340695073
 C         -1.7202646860        1.3780364413        0.9722571441
 H         -1.2149509073        0.7559230044        1.7011568569
 N         -3.7486273714        0.0553898060        1.2460854665
 S         -4.1667197423       -1.2532095294        0.2918894039
 O         -4.8004550639       -0.7742960422       -0.9083187826
 O         -4.9580754667       -2.1174653180        1.1373674939
 C         -2.6257812549       -2.0649390605       -0.0974439321
 C         -2.3287832364       -3.2605375368        0.5274417612
 C         -1.1196059188       -3.8784791062        0.2553591197
 C         -0.2275908753       -3.2869728351       -0.6259713969
 C         -0.5356050796       -2.0817788490       -1.2378446236
 C         -1.7465576278       -1.4605574165       -0.9743709914
 H         -2.0030302404       -0.5212359621       -1.4392664924
 H          0.1603921655       -1.6089512532       -1.9134109299
 H          0.7141779815       -3.7680003935       -0.8367647038
 H         -0.8743297802       -4.8150129512        0.7297597895
 H         -3.0542870240       -3.6825087127        1.2041518805
 H         -3.3122296843       -0.2821668329        2.0930022360
 H         -4.7044940736        1.6722792469       -0.5762346642
 H         -3.4898579423        3.5531288261       -1.6430672050
 H         -1.1547211294        4.0146893105       -1.0438248035
 H          0.4937934545        2.5148037840        1.8626601035
 C          0.8982168692        4.0539912255        0.4641189169
 C          2.3629392688        4.3637529162        0.3983642506
 C          1.5272918034        4.4281893051       -0.8430908163
 H          1.3028837208        5.3995261722       -1.2591395731
 H          1.6457008656        3.6542850962       -1.5856242654
 H          2.7135102928        5.2874085623        0.8335553867
 H          3.0530709386        3.5399028719        0.5079082615
 H          0.2687385622        4.8048783266        0.9319418050
