  62
        -98.93980781
 C          2.6098572019        1.1676668955        0.2808895639
 C          2.4468889231        0.3324561225       -0.8491036907
 C          3.0869674206       -0.9935281123       -0.7813118448
 C          3.8038254468       -1.3302786989        0.3074433578
 C          4.5943808628       -2.5824290413        0.6247835034
 C          4.3372677767       -3.8799775340       -0.1381712518
 C          2.9499282878       -4.4868445003        0.0698208562
 H          2.8740055330       -4.8418873085        1.1007029101
 H          2.8550336390       -5.3535054208       -0.5878463749
 C          1.7722382695       -3.5466868415       -0.1797476373
 H          1.7864636096       -2.7372002465        0.5540272019
 H          0.8480063762       -4.1074634138       -0.0116755128
 C          1.6962963300       -2.9426885129       -1.5814848416
 H          0.7305818127       -2.4334195700       -1.6642880778
 H          1.7155389386       -3.7411749399       -2.3258346234
 C          2.7960153264       -1.9206924156       -1.9246775556
 H          2.4288894260       -1.2949208265       -2.7432552138
 H          3.7029382864       -2.4128506015       -2.2674612968
 H          5.0705453781       -4.6041165420        0.2269040378
 H          4.5324816719       -3.7401982704       -1.1971507007
 H          4.4470002691       -2.7614952430        1.6944044944
 H          5.6486376560       -2.3124005636        0.4986488942
 O          3.9673408953       -0.4702686772        1.3559529971
 C          3.3529102949        0.7706683906        1.3888142178
 O          3.5380179341        1.4095942995        2.4449144001
 O          1.7951457604        0.6733107226       -1.8699151788
 C          1.9085143564        2.5128122303        0.3284514272
 C          0.4278382650        2.3137280475        0.1051683509
 C         -0.3353328387        3.1166931127       -0.7317909084
 C         -1.6810029028        2.8520883205       -0.9214475082
 C         -2.2947692252        1.7904015572       -0.2829584285
 C         -1.5437244103        0.9886357209        0.5666154670
 C         -0.2002662415        1.2632122680        0.7630037794
 H          0.3829240624        0.6309796257        1.4231682388
 N         -2.1590158696       -0.0934461838        1.2272107536
 S         -2.9099259850       -1.2460719864        0.2577206408
 O         -2.9079236973       -2.4597484795        1.0465433570
 O         -2.3005255812       -1.3277654033       -1.0488959486
 C         -4.5807669914       -0.6463855385        0.1225119152
 C         -5.1335807945       -0.4172186947       -1.1220065601
 C         -6.4371642709        0.0484912099       -1.2000300629
 C         -7.1599737205        0.2750997723       -0.0387853304
 C         -6.5905637840        0.0374429066        1.2035499062
 C         -5.2887597375       -0.4295034634        1.2885168607
 H         -4.8092684381       -0.6300167440        2.2320225234
 H         -7.1557090096        0.2151334344        2.1042698841
 H         -8.1732095765        0.6392263735       -0.1023807885
 H         -6.8813193759        0.2336071770       -2.1648248035
 H         -4.5298892982       -0.6009634826       -1.9965643864
 H         -1.5470894377       -0.5541205921        1.8861999935
 H         -3.3388026391        1.5731341493       -0.4393597463
 H         -2.2589142704        3.4792845724       -1.5828890478
 H          0.1268151445        3.9418430713       -1.2483042359
 H          2.0574213233        2.9011045900        1.3469194623
 C          2.5435633164        3.4710599280       -0.6576818261
 C          2.5595369131        4.9435202050       -0.3805378699
 C          3.8254208325        4.1482463239       -0.2799510640
 H          4.5820609253        4.2797873716       -1.0387360966
 H          4.2245181123        3.9373135423        0.7017600011
 H          2.4507889213        5.6256826571       -1.2101438037
 H          2.1034799575        5.2851134791        0.5362651544
 H          2.4350550704        3.1402301800       -1.6842031436
