  62
        -98.94600716
 C          1.5404543208        1.3210225603        0.4797415691
 C          1.4433950004        0.2041219702       -0.3861177408
 C          2.2227592001       -0.9747448800        0.0140113692
 C          2.9090182801       -0.9641858801        1.1709870192
 C          3.7294345198       -2.0983629903        1.7231507492
 C          5.1584279398       -2.1617127808        1.1662797292
 C          5.2713552796       -2.6343099609       -0.2837112008
 H          6.3274656095       -2.8377684912       -0.4719125608
 H          4.7333742693       -3.5755340607       -0.4006348907
 C          4.7715227098       -1.6196475908       -1.3216489408
 H          4.7049007101       -0.6310014608       -0.8615562709
 H          5.4967534498       -1.5446642011       -2.1351065909
 C          3.4209038597       -1.9666575304       -1.9481454407
 H          3.5120389494       -2.8904359105       -2.5234983807
 H          3.1485820499       -1.1645039304       -2.6384700708
 C          2.2775222297       -2.1304879100       -0.9378217807
 H          1.3335568797       -2.1441256298       -1.4862076606
 H          2.3877330794       -3.0686508800       -0.3947263406
 H          5.6157821701       -1.1744024009        1.2647954791
 H          5.7231848596       -2.8527433209        1.7964531392
 H          3.7879276199       -1.9440151503        2.8028760592
 H          3.2223191295       -3.0449634602        1.5346514393
 O          2.9173877805        0.1074325600        2.0097937391
 C          2.2619848608        1.2817292001        1.6714751791
 O          2.3814328511        2.1982743101        2.5113433390
 H         -0.7642360093        1.0938995110        1.6107471892
 C         -1.3119974992        1.5363505611        0.7871236392
 C         -0.6397970690        2.3638056009       -0.1038591608
 C         -1.3579219288        2.9300091710       -1.1489520109
 C         -2.7071349389        2.6596672514       -1.3012879408
 C         -3.3689439691        1.8255154716       -0.4197088607
 C         -2.6608391293        1.2582197615        0.6323719793
 N         -3.3203783595        0.4076836918        1.5419600294
 S         -4.1604742699       -0.9026479180        0.9234211295
 O         -5.3485415798       -0.4289456677        0.2594002295
 O         -4.3692808901       -1.7804274779        2.0530040196
 C         -3.0652495102       -1.6684657484       -0.2555822205
 C         -3.1389292001       -1.3171507685       -1.5879422105
 C         -2.2553201903       -1.8990520888       -2.4821698605
 C         -1.3221684606       -2.8189195091       -2.0324196205
 C         -1.2595052306       -3.1597646690       -0.6900577205
 C         -2.1340136504       -2.5749052387        0.2100804795
 H         -2.1217018604       -2.8186525686        1.2607143095
 H         -0.5304090308       -3.8739876792       -0.3419715005
 H         -0.6394400607       -3.2738746293       -2.7331449705
 H         -2.2947595303       -1.6307049089       -3.5253788205
 H         -3.8856870399       -0.6072248183       -1.9024349705
 H         -2.7280779295        0.1026313716        2.3009929794
 H         -4.4176683792        1.6007693919       -0.5280307006
 H         -3.2515109488        3.1050560515       -2.1200396608
 H         -0.8603936187        3.5801707808       -1.8495537109
 C          0.8322669711        2.6130075004        0.1170580591
 H          0.9408162014        3.2784452505        0.9864325890
 C          1.5179014313        3.2512768002       -1.0745034310
 C          1.5577527117        4.7417560701       -1.2217044511
 C          2.8021353815        3.9912336598       -0.8558364411
 H          3.5855410714        3.8962857195       -1.5928029511
 H          3.1653510315        4.0619038698        0.1595255689
 H          1.4907058618        5.1651517901       -2.2125763511
 H          1.0814586419        5.3341505703       -0.4550645711
 H          1.4354180710        2.6482222901       -1.9715688210
 O          0.7472478303        0.1903182904       -1.4323539408
