  62
        -98.94494381
 C         -2.2078586799       -0.7960557103       -0.1175086499
 C         -3.0523246900       -0.5324698097        0.9939047299
 C         -3.8885742802        0.6707130502        0.9117314490
 C         -3.7904275501        1.4631960595       -0.1707336615
 C         -4.6181284803        2.6906095992       -0.4156767424
 C         -5.8983613801        2.3500105686       -1.1917103123
 C         -6.6777096601        1.1705738589       -0.6097985216
 H         -7.5746484500        1.0415175584       -1.2193037416
 H         -6.0816633099        0.2616246389       -0.7186171810
 C         -7.0791080702        1.3395745598        0.8622035782
 H         -7.0154991104        2.3909063400        1.1449880276
 H         -8.1213468702        1.0350748997        0.9780909183
 C         -6.2583191902        0.5008022505        1.8435625589
 H         -6.2429497001       -0.5403080297        1.5117399396
 H         -6.7588831103        0.5275445311        2.8150241388
 C         -4.8105313103        0.9575708208        2.0634244087
 H         -4.7933100705        2.0203368610        2.3136389880
 H         -4.4102032403        0.3980180215        2.9138124691
 H         -6.5354810902        3.2360369685       -1.2114495030
 H         -5.6241007100        2.1054165479       -2.2205550521
 H         -4.8695403204        3.1489017898        0.5388812673
 H         -4.0241519503        3.3948338989       -1.0008829328
 O         -2.9481296200        1.2003362089       -1.2000215012
 C         -2.1441168199        0.0693631990       -1.2093755904
 O         -1.4453485998       -0.0277832116       -2.2390474203
 H          0.5377364803       -0.8291831209       -1.5584175696
 C          0.9045317102       -1.0675531302       -0.5714496794
 C          0.0633117202       -1.6979602197        0.3343552010
 C          0.5400548301       -1.9564835488        1.6146374212
 C          1.8272844800       -1.5973422784        1.9732928511
 C          2.6625398100       -0.9693334489        1.0666481608
 C          2.1897015101       -0.6917956298       -0.2090639895
 N          3.0234488201       -0.0361741203       -1.1346788098
 S          3.7362571499        1.4026659101       -0.6386160507
 O          2.9478273397        2.0657783406        0.3752545888
 O          3.9831323699        2.1484683793       -1.8535575312
 C          5.2966366899        0.8789463107        0.0427734198
 C          6.1407450501        0.1407015803       -0.7636975196
 C          7.3596244101       -0.2755954693       -0.2528140692
 C          7.7128799799        0.0532086916        1.0475922206
 C          6.8561843997        0.7984268121        1.8431702900
 C          5.6349493797        1.2177016116        1.3382155296
 H          4.9338921696        1.7938359119        1.9211172492
 H          7.1325529096        1.0536090828        2.8536122399
 H          8.6615718299       -0.2731850980        1.4435063009
 H          8.0285961202       -0.8547748896       -0.8686494188
 H          5.8286081702       -0.0901600804       -1.7684883895
 H          2.5852737202        0.0870947390       -2.0371105900
 H          3.6639947900       -0.6809760186        1.3413053907
 H          2.1840008299       -1.8064085077        2.9702657613
 H         -0.1152519599       -2.4254284584        2.3343427414
 C         -1.3548715597       -2.0533224601       -0.0432393689
 H         -1.7822309798       -2.6371069596        0.7829744314
 C         -1.4150220095       -2.8925113610       -1.3037880484
 C         -1.0177307894       -4.3354974109       -1.2333613274
 C         -2.4570223794       -3.9625673812       -1.4205275478
 H         -2.9154995093       -4.1311922719       -2.3834243477
 H         -3.1315526895       -4.0964078607       -0.5873445878
 H         -0.4845497092       -4.7637079514       -2.0680450771
 H         -0.7161554194       -4.7228688902       -0.2720500571
 H         -1.1682899495       -2.3441129215       -2.2034133487
 O         -3.1083165900       -1.2792717290        2.0067843704
