  62
        -98.94137092
 C          2.3366242676       -1.1076468268        0.4771350885
 C          3.6615078552       -1.0404682498       -0.0218287117
 C          4.4605092244        0.1037591034        0.4281155905
 C          3.9177405006        1.0092254233        1.2622948983
 C          4.6102176769        2.2212741402        1.8240937950
 C          4.5979293160        3.4379172958        0.8884035464
 C          5.5216231705        3.3346531802       -0.3259339537
 H          5.5798191073        4.3306960846       -0.7692643416
 H          6.5255506002        3.0659571645        0.0041813800
 C          5.0481453553        2.3445770473       -1.3993548563
 H          5.1316201945        2.8083640971       -2.3849020836
 H          3.9907133965        2.1161249129       -1.2442238681
 C          5.8367582863        1.0357533561       -1.4462389052
 H          5.3923810504        0.3960106544       -2.2129341625
 H          6.8697028367        1.2407442389       -1.7359389851
 C          5.8453780618        0.2560092550       -0.1249938632
 H          6.2368253637       -0.7451865777       -0.3208055165
 H          6.4924933370        0.7499976961        0.5992744983
 H          4.9043492127        4.3050855575        1.4780194616
 H          3.5724493480        3.6102226069        0.5526369424
 H          4.0774890119        2.4865899408        2.7397618316
 H          5.6394008952        1.9688757038        2.0808754166
 O          2.6422315863        0.9087624967        1.7210057017
 C          1.8144502494       -0.1345781881        1.3293333731
 O          0.6688430395       -0.0813524948        1.8172778723
 H         -1.1756904621       -1.7391815731        0.6380645945
 C         -0.9226956274       -1.4594571450       -0.3722400912
 C          0.3595211241       -1.6808951520       -0.8472114904
 C          0.6676328646       -1.2837281476       -2.1459863619
 C         -0.2852625697       -0.6807630938       -2.9444219304
 C         -1.5642497804       -0.4553561351       -2.4646407914
 C         -1.8782345046       -0.8402706473       -1.1688805494
 N         -3.1769511426       -0.6223492023       -0.6665189671
 S         -3.8660853650        0.8939649555       -0.9515344704
 O         -4.3759702129        0.9145825587       -2.3005080103
 O         -2.9330758471        1.9472820091       -0.6168395847
 C         -5.2214778636        0.8629242242        0.2043147889
 C         -5.0138085105        1.3220103441        1.4913069603
 C         -6.0597525394        1.2663424713        2.3990218398
 C         -7.2869315356        0.7521649258        2.0073361115
 C         -7.4792997433        0.2945238422        0.7123638562
 C         -6.4380996052        0.3481332031       -0.2006718071
 H         -6.5412481114        0.0114645965       -1.2188771785
 H         -8.4352830388       -0.1028563723        0.4120127890
 H         -8.0983975919        0.7103780169        2.7166021233
 H         -5.9127945732        1.6231056678        3.4058231408
 H         -4.0451377691        1.7199503409        1.7510163345
 H         -3.2267041698       -0.8405481280        0.3202201215
 H         -2.3129278963        0.0300829988       -3.0695351534
 H         -0.0318580043       -0.3765979886       -3.9491571221
 H          1.6720366185       -1.4408540719       -2.5148721508
 C          1.4536466003       -2.2561608519        0.0171890793
 H          2.0975724975       -2.8810991798       -0.6164122402
 C          0.9558938537       -3.0888130573        1.1790128517
 C          0.3769668405       -4.4459689946        0.9160067651
 C          1.7160328730       -4.3173332048        1.5758145430
 H          1.7996324574       -4.5533614964        2.6260633716
 H          2.5964104420       -4.5662850419        1.0017898360
 H          0.3465121887       -4.7820444540       -0.1093067383
 H         -0.4603867644       -4.7748646399        1.5121874503
 H          0.5249232196       -2.4960830269        1.9769505731
 O          4.1531623652       -1.8992492681       -0.8012009333
