  62
        -98.93683474
 C         -2.4080713221        1.0529625369        0.2295822238
 C         -2.5220463913       -0.1622186210       -0.4900199247
 C         -3.8897370993       -0.5504648263       -0.8668396250
 C         -4.9239226275        0.2604876202       -0.5830951003
 C         -6.3684878470        0.0100389377       -0.9210762991
 C         -7.1022154046       -0.8729096547        0.0976147094
 C         -6.7202840463       -2.3533753764        0.0691432963
 H         -6.8033572870       -2.7292133417       -0.9510509217
 H         -7.4570812195       -2.8857195087        0.6739051582
 C         -5.3195453331       -2.6575612483        0.6188594109
 H         -5.3714600915       -3.5129757904        1.2962083355
 H         -4.9652476155       -1.8073740012        1.2066152534
 C         -4.2771460481       -2.9889804769       -0.4493514757
 H         -4.5542906360       -3.9157235613       -0.9566481344
 H         -3.3171742106       -3.1524579016        0.0476645671
 C         -4.0835553805       -1.8926344695       -1.5053633813
 H         -4.9340016811       -1.8718779638       -2.1863624313
 H         -3.1803985323       -2.1209783615       -2.0766120295
 H         -8.1713757042       -0.7914763330       -0.1112034210
 H         -6.9277518453       -0.4706225972        1.0982732450
 H         -6.4407845159       -0.4383324473       -1.9122254544
 H         -6.8556466830        0.9871807939       -0.9440623193
 O         -4.7626426565        1.4551788807        0.0467007075
 C         -3.5141256525        1.8695185064        0.4799337550
 O         -3.5161181281        2.9766608902        1.0548566087
 O         -1.5489961822       -0.8921342584       -0.8096979253
 C         -1.0670847004        1.5654205251        0.7233695929
 C         -0.0185377937        1.4316962680       -0.3533849695
 C         -0.2161660904        2.0971470824       -1.5613473270
 C          0.7226716168        2.0237569272       -2.5710472678
 C          1.8925565643        1.3066626795       -2.3897607020
 C          2.0974378548        0.6366063737       -1.1904747997
 C          1.1428277916        0.6965003818       -0.1843798542
 H          1.3221085507        0.1469841332        0.7246444762
 N          3.2638702543       -0.1151035820       -0.9768395931
 S          3.9303486065       -0.1230837068        0.5732587786
 O          3.3216625250       -1.1774218939        1.3447697472
 O          3.8673336458        1.2033552477        1.1454471984
 C          5.6215214396       -0.5511199285        0.1999650861
 C          5.9520997615       -1.8821119398        0.0278855784
 C          7.2595400203       -2.2111844433       -0.2930375819
 C          8.2089747791       -1.2102432843       -0.4367612270
 C          7.8627810502        0.1208992209       -0.2593406616
 C          6.5568246462        0.4570649649        0.0607311491
 H          6.2436004842        1.4768326713        0.2171596853
 H          8.6036390329        0.8964517096       -0.3684825961
 H          9.2258727115       -1.4695304451       -0.6857070845
 H          7.5331319429       -3.2450837251       -0.4288844279
 H          5.1826735986       -2.6252459204        0.1583603978
 H          3.9643529178        0.0269647041       -1.6913003974
 H          2.6324568689        1.2567223665       -3.1742469468
 H          0.5498773251        2.5394687774       -3.5038986048
 H         -1.1255089432        2.6678864328       -1.6976402439
 H         -1.2212844048        2.6436121856        0.9010673247
 C         -0.6303273213        0.9676139214        2.0527469936
 C         -1.6344847221        0.5245505844        3.0732939106
 C         -0.7887014613       -0.4886553826        2.3652063045
 H          0.0015500227       -0.9809365187        2.9140050864
 H         -1.2476254375       -1.1123775387        1.6145642930
 H         -1.4327851490        0.7305991205        4.1137061571
 H         -2.6797203325        0.5943816947        2.8082917456
 H          0.2642559467        1.4501772338        2.4376961929
