  62
        -98.93984300
 C         -1.8095143861       -0.0039455050        0.2458484174
 C         -2.7841486148       -0.6813024125       -0.5290610748
 C         -4.1008779737       -0.0302097668       -0.6058236056
 C         -4.3053690025        1.1557263921       -0.0070653351
 C         -5.5807358068        1.9539161765       -0.0286143219
 C         -6.6062307982        1.5219165674        1.0285241387
 C         -7.3031169776        0.1889453895        0.7525560169
 H         -8.1420376272        0.1167264017        1.4476344871
 H         -7.7165124894        0.1988737468       -0.2564322969
 C         -6.4060504736       -1.0437298225        0.9319438681
 H         -5.5218883729       -0.7685327696        1.5117441899
 H         -6.9416093437       -1.8028979200        1.5065512260
 C         -5.9574516023       -1.6969750714       -0.3753517463
 H         -5.2996728292       -2.5349902376       -0.1315143842
 H         -6.8272622616       -2.0943402151       -0.9030627421
 C         -5.1981648675       -0.7585757594       -1.3223162753
 H         -5.8870720490       -0.0511033023       -1.7830359035
 H         -4.7377059553       -1.3629600239       -2.1074668979
 H         -6.1087437188        1.4794362723        2.0003177990
 H         -7.3689401350        2.3024216097        1.0802721917
 H         -6.0321712921        1.8975069557       -1.0195802084
 H         -5.3003483907        2.9911813735        0.1672756528
 O         -3.3312784031        1.7948456869        0.6952727531
 C         -2.0798190088        1.2244127497        0.8555054177
 O         -1.2998625665        1.8993908818        1.5586726719
 O         -2.5893928638       -1.7663171987       -1.1325923501
 C         -0.4038136299       -0.5426187702        0.4661407060
 C          0.4987090468       -0.0954187918       -0.6549573609
 C          0.2012311546       -0.4067149522       -1.9794420652
 C          1.0210263890        0.0313785165       -3.0019062759
 C          2.1534597912        0.7783610109       -2.7264825744
 C          2.4557140713        1.0997243605       -1.4086033277
 C          1.6309113259        0.6579132282       -0.3813773477
 H          1.8606816935        0.9405534865        0.6350268712
 N          3.5864746012        1.8696467485       -1.1089264208
 S          4.4405505350        1.6417081447        0.3026168981
 O          3.7474542906        2.2308359309        1.4204692663
 O          5.7507438905        2.1861813962        0.0153389459
 C          4.5620992858       -0.1252182709        0.5220974972
 C          4.2539163859       -0.6764269488        1.7487949528
 C          4.3779834191       -2.0466419684        1.9205258962
 C          4.7994607577       -2.8391350868        0.8643512244
 C          5.1055678337       -2.2704228454       -0.3624087980
 C          4.9915538114       -0.9008619521       -0.5369910249
 H          5.2337354303       -0.4312297637       -1.4761725895
 H          5.4320264400       -2.8895275030       -1.1822181075
 H          4.8868236689       -3.9054477452        0.9985621562
 H          4.1395816473       -2.4890944693        2.8745906509
 H          3.9163594722       -0.0252038649        2.5397487443
 H          4.1835094110        2.0891934673       -1.8918039641
 H          2.7917963174        1.1235965429       -3.5253988170
 H          0.7789465534       -0.2137509658       -4.0249230912
 H         -0.6802521453       -0.9919088789       -2.1919731069
 H         -0.0504971371       -0.0521092425        1.3870159887
 C         -0.3773620879       -2.0474339610        0.7055131656
 C          0.3795626920       -3.0107825886       -0.1552326269
 C          0.8772935590       -2.6893303043        1.2191117541
 H          0.7971985091       -3.4381805358        1.9922519599
 H          1.7527090471       -2.0617755818        1.2980584319
 H         -0.0698930862       -3.9755232627       -0.3339016624
 H          0.9301304676       -2.6230481974       -0.9972976655
 H         -1.3110364936       -2.4108317673        1.1207901597
