  62
        -98.93981315
 C         -2.3300733105       -1.0306124698        0.3018240209
 C         -2.6028753601        0.1021943597       -0.5043653000
 C         -3.6407043999        1.0119700803        0.0042365093
 C         -4.2239229801        0.7765365913        1.1924477694
 C         -5.2729579099        1.6292246220        1.8525802587
 C         -6.7022033300        1.3402584520        1.3734397288
 C         -7.0275865997        1.8328356311       -0.0372593716
 H         -8.1101037497        1.7611917113       -0.1597787117
 H         -6.7593423594        2.8861780810       -0.1243549524
 C         -6.3508602398        1.0331508601       -1.1593389810
 H         -6.0014657901        0.0760874803       -0.7649133603
 H         -7.0820907698        0.8093917198       -1.9394011109
 C         -5.1786036896        1.7491738394       -1.8304619114
 H         -5.5401340993        2.6435199191       -2.3428543821
 H         -4.7528177897        1.0799738887       -2.5827337309
 C         -4.0542020896        2.1578421698       -0.8697751916
 H         -4.3680650694        3.0066515003       -0.2626297022
 H         -3.1863948394        2.4541674291       -1.4645045717
 H         -7.3849693499        1.8291201227        2.0720770784
 H         -6.8796421302        0.2640092321        1.4336405795
 H         -5.2184144601        1.4151682128        2.9220515188
 H         -5.0415174796        2.6832153319        1.6964925379
 O         -3.8973343604       -0.2946163482        1.9628594702
 C         -2.9737242806       -1.2288111088        1.5278798409
 O         -2.8090014109       -2.1844689683        2.3118691616
 O         -2.0211314299        0.3671083387       -1.5891520801
 C         -1.3390944507       -2.1154508204       -0.0893011683
 C          0.0687212194       -1.7550256804        0.3089468816
 C          0.8702129191       -2.6546952301        1.0011193823
 C          2.1728932791       -2.3254884502        1.3336672622
 C          2.7012471995       -1.0959709406        0.9831338313
 C          1.9073599498       -0.1889859809        0.2934301306
 C          0.6021099597       -0.5209224708       -0.0365711493
 H         -0.0054974101        0.1816920389       -0.5881835998
 N          2.4398182501        1.0654230487       -0.0700179702
 S          3.7755463402        1.0228830676       -1.0940208301
 O          3.7863431706        2.3021207171       -1.7689665010
 O          3.7515862000       -0.1499711430       -1.9379777693
 C          5.1612757801        0.9420975881        0.0206093601
 C          5.3050887002        1.9496349487        0.9544850994
 C          6.3812263601        1.9043334091        1.8262718795
 C          7.2913299499        0.8604124188        1.7476408103
 C          7.1345990297       -0.1413658019        0.8019934210
 C          6.0595088998       -0.1028488122       -0.0723956491
 H          5.8923170497       -0.8620082927       -0.8195157286
 H          7.8432087495       -0.9516776521        0.7426250417
 H          8.1279229198        0.8277897390        2.4276031904
 H          6.5065457003        2.6812282796        2.5632678389
 H          4.5770452004        2.7433092889        0.9791099287
 H          1.7412882603        1.6860541486       -0.4561092907
 H          3.7148804995       -0.8342398207        1.2394220912
 H          2.7838556389       -3.0337780500        1.8719326027
 H          0.4623840888       -3.6139355298        1.2848924330
 H         -1.6337212010       -2.9972100899        0.5011957223
 C         -1.4474801907       -2.5016590514       -1.5602160280
 C         -0.3890668005       -2.2201352224       -2.5803976981
 C         -0.6134257409       -3.6226649320       -2.1059460971
 H         -1.0729685910       -4.3321993424       -2.7771977667
 H          0.1323521889       -4.0493783317       -1.4522884268
 H         -0.7141876904       -1.9462249130       -3.5728875983
 H          0.5119790296       -1.7126315724       -2.2706362384
 H         -2.4724252906       -2.4466312014       -1.9139232881
