  62
        -98.94291609
 C         -2.6410845590       -1.1893618017        0.2475844178
 C         -2.7682408520       -0.3266396811       -0.8679388408
 C         -3.7929962116        0.7232686191       -0.7567569272
 C         -4.5486893068        0.8029079173        0.3526925373
 C         -5.5844139773        1.8561234571        0.6163051431
 C         -4.9780639263        3.0602620588        1.3505392067
 C         -3.6914826337        3.5876720835        0.7152896528
 H         -3.3732885235        4.4548533922        1.2978849658
 H         -2.9092081848        2.8311441336        0.8125999540
 C         -3.8293847893        3.9864929043       -0.7606957738
 H         -3.3316101402        4.9466167094       -0.9121462877
 H         -4.8818669284        4.1246998616       -1.0107218349
 C         -3.2009893914        2.9991764146       -1.7460350734
 H         -2.1725145715        2.7848220435       -1.4438448970
 H         -3.1600846552        3.4782790714       -2.7280323403
 C         -3.9409788777        1.6664573496       -1.9178746851
 H         -4.9953241727        1.8553291083       -2.1290962782
 H         -3.5052271974        1.1530277339       -2.7800351804
 H         -5.7239264199        3.8565637306        1.3813856756
 H         -4.7552164460        2.7628077705        2.3777652062
 H         -6.0202987161        2.1747645135       -0.3285484507
 H         -6.3674827866        1.4193199341        1.2382715884
 O         -4.4164174578       -0.0556790476        1.3945290150
 C         -3.4638702158       -1.0574888483        1.3724870375
 O         -3.4495155955       -1.7673623771        2.3976424698
 H         -0.0559266790       -0.6856357249       -1.1550132106
 C          0.4295383021       -0.9909259050       -0.2397839243
 C         -0.2459686506       -1.8238418535        0.6407067451
 C          0.3893596776       -2.1995397713        1.8186303071
 C          1.6664640687       -1.7496357518        2.1045319188
 C          2.3334011728       -0.9136174322        1.2269086288
 C          1.7068738131       -0.5308296156        0.0481419651
 N          2.3603605621        0.3408805161       -0.8394840082
 S          3.9392671713       -0.0042202035       -1.2877619791
 O          4.1263066817        0.6549284446       -2.5617657243
 O          4.2031731480       -1.4242396652       -1.2547093021
 C          4.9234014036        0.8273114711       -0.0583621579
 C          5.8908293914        0.1292042170        0.6373925501
 C          6.6556173024        0.8009159475        1.5785804187
 C          6.4412466450        2.1517958954        1.8049252056
 C          5.4667984511        2.8389870682        1.0962696955
 C          4.6996887513        2.1736677253        0.1534333411
 H          3.9347536545        2.6711487747       -0.4193796933
 H          5.3025861245        3.8893702907        1.2755346041
 H          7.0368250913        2.6726031058        2.5379814877
 H          7.4136009394        0.2685491022        2.1303965819
 H          6.0179906740       -0.9216907035        0.4316046912
 H          1.8013256266        0.5844599150       -1.6447071484
 H          3.3274259448       -0.5587148395        1.4453601553
 H          2.1474017119       -2.0505341818        3.0227653999
 H         -0.1300956442       -2.8411139947        2.5156881829
 C         -1.6332233984       -2.3272776244        0.3175212630
 H         -1.9616697119       -2.9571629293        1.1548957164
 C         -1.6173189202       -3.1784977636       -0.9383138446
 C         -1.1002167366       -4.5817698140       -0.8572977573
 C         -2.5651101624       -4.3322759398       -1.0534054382
 H         -3.0028656488       -4.5451447445       -2.0171476908
 H         -3.2297814205       -4.5171955480       -0.2218326014
 H         -0.7719509635       -4.9389758003        0.1071101724
 H         -0.5269534148       -4.9677569662       -1.6863567390
 H         -1.4090641263       -2.6166206564       -1.8392160204
 O         -2.0740247556       -0.4038370930       -1.9183773017
