  62
        -98.94498129
 C          2.0665637941        1.3419339290        0.0280812263
 C          2.6538046012        0.6727035713        1.1281655948
 C          3.8263106146       -0.1542872738        0.8236154664
 C          4.2746158040       -0.2354902435       -0.4426317333
 C          5.4701491615       -1.0213807070       -0.9086761212
 C          5.1739904319       -2.5021709072       -1.1834582294
 C          4.9507969974       -3.3629693705        0.0606861229
 H          4.9685955570       -4.4054926328       -0.2632559325
 H          5.7821513682       -3.2227304078        0.7522235237
 C          3.6247561239       -3.0953703139        0.7864507856
 H          2.9480760454       -2.5555705652        0.1191601923
 H          3.1431216905       -4.0460191377        1.0274669316
 C          3.7646286271       -2.3131524345        2.0927206082
 H          2.7651193009       -2.1524105380        2.5053660116
 H          4.3336417103       -2.9042911987        2.8136017408
 C          4.4408039214       -0.9441458683        1.9398618042
 H          5.5103726858       -1.0698790563        1.7741810745
 H          4.2926217209       -0.3835819022        2.8660823299
 H          4.2990134414       -2.5687564911       -1.8345190731
 H          6.0269241646       -2.9089069183       -1.7315566662
 H          6.2725113389       -0.9395620478       -0.1749757644
 H          5.8017401340       -0.5586700442       -1.8406762637
 O          3.6806355131        0.4214993256       -1.4734592274
 C          2.5500580249        1.2023346257       -1.2732044715
 O          2.0883785297        1.7094060600       -2.3120602689
 O          2.2145283594        0.7575091043        2.3071639617
 C          0.8349182555        2.1980136727        0.2645866593
 C         -0.3449188668        1.5950685713       -0.4580017054
 C         -1.1669694337        2.3055816184       -1.3215388752
 C         -2.2188418530        1.6748597514       -1.9649879559
 C         -2.4809645674        0.3343752778       -1.7541235038
 C         -1.6786637647       -0.3804931222       -0.8723495696
 C         -0.6268367619        0.2528257692       -0.2295915221
 H          0.0004329502       -0.3066549377        0.4535443286
 N         -1.9463855701       -1.7381000423       -0.6332470121
 S         -3.5386703423       -2.2112268066       -0.4366227485
 O         -3.4805173446       -3.3918597014        0.3966024813
 O         -4.1572019699       -2.3839614274       -1.7275481144
 C         -4.3292231492       -0.8690654374        0.4340090775
 C         -3.8241110884       -0.5028458745        1.6659233593
 C         -4.4102713757        0.5539033404        2.3431774189
 C         -5.4863609683        1.2231502491        1.7801143831
 C         -5.9855029252        0.8397030492        0.5452667885
 C         -5.4017946140       -0.2154992159       -0.1374981378
 H         -5.7556139084       -0.5448282806       -1.1008344615
 H         -6.8238892492        1.3598802207        0.1109999960
 H         -5.9378630198        2.0475099194        2.3090620530
 H         -4.0227352822        0.8528976535        3.3039234009
 H         -2.9887279277       -1.0449207024        2.0798925098
 H         -1.3442428650       -2.1639748832        0.0551809385
 H         -3.2824057659       -0.1736606232       -2.2653606768
 H         -2.8407685286        2.2355488507       -2.6457235515
 H         -0.9774738115        3.3502908433       -1.5030168254
 H          0.6407309113        2.1321689289        1.3454952654
 C          1.1025225711        3.6435886225       -0.0936256877
 C          0.3263777032        4.7382390516        0.5738389446
 C          1.7698403111        4.5273894946        0.9157783518
 H          2.4952607382        5.2482786120        0.5696554691
 H          2.0124712396        4.0918786469        1.8741923126
 H          0.0605843006        5.6093231870       -0.0055537739
 H         -0.4141071979        4.4508371432        1.3046022234
 H          1.3839817036        3.7715923843       -1.1324920473
