  62
        -98.94104875
 C         -1.6578865604       -1.5743407073       -0.2510522278
 C         -2.6530204430       -0.8460628888        0.4408988052
 C         -3.0463028203        0.4348754833       -0.1550482288
 C         -2.4853101351        0.8312002743       -1.3116735828
 C         -2.7831125167        2.1042203295       -2.0561504546
 C         -2.3006329838        3.3921181780       -1.3591039628
 C         -3.3788729253        4.0942022641       -0.5239543414
 H         -3.2770092212        5.1732313855       -0.6568630698
 H         -4.3597180933        3.8201905197       -0.9156089488
 C         -3.3385882342        3.8254991355        0.9835619862
 H         -2.5438407381        4.4277713128        1.4306512773
 H         -4.2876917272        4.1584557249        1.4104143484
 C         -3.0889736620        2.3748047060        1.3965614848
 H         -3.2677126076        2.2901871670        2.4713432799
 H         -2.0341681499        2.1309474079        1.2379796882
 C         -3.9432844677        1.3306693360        0.6482862682
 H         -4.4695449591        0.6960966675        1.3645739996
 H         -4.6793454411        1.8185035494        0.0112420570
 H         -1.4267116440        3.1602409683       -0.7480746510
 H         -1.9742534879        4.0787507914       -2.1422174954
 H         -2.2770686034        2.0084736086       -3.0187626147
 H         -3.8574951383        2.1671089728       -2.2424375056
 O         -1.5650614719        0.0807797468       -1.9701483428
 C         -1.0643955850       -1.0843783886       -1.4143804764
 O         -0.1216937297       -1.5912546877       -2.0533115758
 O         -3.1731663391       -1.2415010700        1.5217358668
 C         -1.0628451668       -2.8134254620        0.4015735286
 C          0.3605398318       -2.4621673091        0.7596734403
 C          1.4772938748       -3.1794839078        0.3539386689
 C          2.7516243989       -2.6916047352        0.5952175357
 C          2.9374602342       -1.4688358641        1.2150288129
 C          1.8251324131       -0.7613008432        1.6503564573
 C          0.5571806777       -1.2748890999        1.4562273546
 H         -0.3023519046       -0.7062398312        1.7895653021
 N          2.0006339638        0.5517402894        2.1843652450
 S          1.6727068795        1.6918306014        0.9769681533
 O          1.8791637039        2.9862653497        1.5925439140
 O          0.3642822698        1.4944988248        0.3901586122
 C          2.9585025657        1.3487884266       -0.1976963199
 C          4.2021544287        1.9124344446        0.0127349065
 C          5.2329014029        1.6045955995       -0.8599208473
 C          5.0039699691        0.7361250078       -1.9171401535
 C          3.7501412218        0.1775477879       -2.1119609007
 C          2.7122140576        0.4832966192       -1.2448635225
 H          1.7276477625        0.0579009398       -1.3705767095
 H          3.5665983977       -0.5015804892       -2.9290468026
 H          5.8069737989        0.4914990603       -2.5944610685
 H          6.2090824032        2.0374819648       -0.7119485160
 H          4.3281500612        2.5803962261        0.8488737969
 H          1.3812578192        0.7394489483        2.9627292666
 H          3.9213831634       -1.0532443411        1.3592586308
 H          3.6094511441       -3.2560073682        0.2641218214
 H          1.3490506949       -4.1093248262       -0.1755733126
 H         -1.6370094075       -2.9660963695        1.3269587537
 C         -1.1969544685       -4.0374325582       -0.4750711870
 C         -1.1868527721       -5.4039965861        0.1409376075
 C         -2.4599411374       -4.8412043462       -0.4134449476
 H         -2.8523636714       -5.2534933592       -1.3306792939
 H         -3.2224799248       -4.5158548710        0.2791731516
 H         -0.7071881792       -6.2080305832       -0.3960204024
 H         -1.0867443938       -5.4674524331        1.2138878409
 H         -0.7340911655       -3.9072143905       -1.4462536046
