  62
        -98.93761933
 C          1.6047987177        0.4421696211        0.9983755176
 C          2.8567546976        1.0358763266        0.7037459357
 C          3.9871003296        0.1021045569        0.5580209260
 C          3.7846579814       -1.2188980984        0.7042952635
 C          4.8339201892       -2.2759854772        0.5196833412
 C          4.8627810317       -2.7822155348       -0.9292505843
 C          4.9034433116       -1.6657533061       -1.9727302798
 H          4.9531402792       -2.1405181942       -2.9550725870
 H          3.9656875951       -1.1065893655       -1.9335128867
 C          6.0801883203       -0.6925970977       -1.8156291663
 H          6.8530184128       -1.1428808875       -1.1915312898
 H          6.5211074007       -0.5145322472       -2.7987896379
 C          5.7005584020        0.6746873381       -1.2439826144
 H          6.5516443610        1.3476434520       -1.3788962113
 H          4.8633965456        1.0889968315       -1.8113835819
 C          5.3313929880        0.6970709317        0.2447111882
 H          6.1152803289        0.2071488690        0.8258626966
 H          5.2756102000        1.7443291440        0.5562554266
 H          5.7334471788       -3.4291006716       -1.0516523259
 H          3.9662563581       -3.3812806054       -1.1043942904
 H          5.8053413012       -1.8686913949        0.7931348398
 H          4.6007629205       -3.1111232271        1.1822959909
 O          2.5696536460       -1.7516959100        0.9925723601
 C          1.4560800650       -0.9415150315        1.1336796057
 O          0.4029791002       -1.5595167507        1.3859672093
 O          3.0443722264        2.2714538839        0.5642648530
 C          0.3234965410        1.2412118425        1.1704691367
 C         -0.3635693448        1.4139250640       -0.1594876745
 C          0.3030375193        1.9569058538       -1.2537959701
 C         -0.3485091570        2.0987129274       -2.4650624392
 C         -1.6659350673        1.7004452683       -2.6102235723
 C         -2.3377439249        1.1465825193       -1.5253535698
 C         -1.6810177917        1.0089102181       -0.3096042088
 H         -2.2047015461        0.5848295158        0.5320620882
 N         -3.6538293747        0.7085180822       -1.6612285132
 S         -4.6340757205        0.2175979111       -0.4149751930
 O         -5.9163102477        0.0029305388       -1.0495096727
 O         -4.6208639141        1.1626446155        0.6767752351
 C         -3.9548373294       -1.3444346261        0.1015029107
 C         -3.7403858523       -2.3122817710       -0.8591435274
 C         -3.2122015867       -3.5327435533       -0.4723401932
 C         -2.9095786165       -3.7639491025        0.8607738781
 C         -3.1356055978       -2.7842423093        1.8138987213
 C         -3.6644268823       -1.5619448458        1.4327744343
 H         -3.8481952560       -0.7712502329        2.1437587800
 H         -2.8931451199       -2.9637607126        2.8488730464
 H         -2.4904399104       -4.7115921601        1.1599792430
 H         -3.0326663422       -4.2984304658       -1.2100702556
 H         -3.9882775932       -2.0990194079       -1.8858726783
 H         -4.1207772879        0.8932895872       -2.5336463598
 H         -2.1715068768        1.8130597905       -3.5568404309
 H          0.1744128141        2.5264630687       -3.3073633101
 H          1.3294241924        2.2712290418       -1.1395970062
 H         -0.3279080355        0.6072942327        1.7934484544
 C          0.5199395687        2.5520906954        1.9196160535
 C          0.3092251983        3.9005602054        1.3063769437
 C         -0.6802938937        3.3699079127        2.2970133876
 H         -0.7197994727        3.8108509413        3.2817441626
 H         -1.6403247744        3.0443312763        1.9218787045
 H          0.9742970996        4.6947593682        1.6095904689
 H          0.0127467653        3.9541403884        0.2708859112
 H          1.3103008689        2.4826069207        2.6596818868
