  62
        -98.94023476
 C         -2.0714701501       -1.2369848940       -0.0393702081
 C         -2.3729154533       -0.0543538390       -0.7605382731
 C         -3.7900227860        0.3478610682       -0.7679709283
 C         -4.6992303435       -0.4012263802       -0.1204171485
 C         -6.1600950840       -0.0770706230       -0.0082720249
 C         -6.4487540807        0.7560049454        1.2484223833
 C         -5.5197275845        1.9579169783        1.4203349752
 H         -5.8362404152        2.4870751011        2.3218031274
 H         -4.5024461273        1.6014136564        1.5982897877
 C         -5.5132692170        2.9307751261        0.2329179770
 H         -5.5663532016        3.9518375168        0.6166296907
 H         -6.3991464171        2.7700750181       -0.3827069632
 C         -4.2640414276        2.8508837713       -0.6466747502
 H         -4.2625218869        3.7170113718       -1.3139950551
 H         -3.3694455654        2.9193376577       -0.0220282663
 C         -4.1442224182        1.5979116450       -1.5232004837
 H         -5.0651253820        1.4575032150       -2.0930638889
 H         -3.3248458427        1.7653846784       -2.2286063376
 H         -7.4843932044        1.0979906189        1.2053390882
 H         -6.3398213664        0.1115990599        2.1238659777
 H         -6.7168112597       -1.0138332838        0.0520721529
 H         -6.4762784713        0.4652789267       -0.8972228274
 O         -4.3737560387       -1.5304117502        0.5586458486
 C         -3.0597543305       -1.9599814101        0.6361046892
 O         -2.9000388250       -2.9857808837        1.3270177143
 O         -1.5232348589        0.6384571413       -1.3766950921
 C         -0.6516343124       -1.7634291874        0.1009855553
 C          0.2725742882       -0.6395507677        0.4966080873
 C          0.2319236097       -0.1607206919        1.8024173129
 C          1.0457592481        0.8841061773        2.1991041343
 C          1.9138610703        1.4767481042        1.2993954165
 C          1.9581280948        1.0090160680       -0.0071132838
 C          1.1522832221       -0.0520307595       -0.3986766866
 H          1.1797372062       -0.3922052720       -1.4220360900
 N          2.8304721283        1.6157278196       -0.9302584393
 S          4.4478992979        1.7259425919       -0.5210137157
 O          4.6238466656        2.7394418834        0.4882648628
 O          5.1463895290        1.9386611253       -1.7683702230
 C          4.8442600039        0.1214551786        0.1486821209
 C          5.0455363535       -0.9208167356       -0.7347074740
 C          5.2816976115       -2.1899546736       -0.2324190129
 C          5.3014550409       -2.3958796800        1.1388194928
 C          5.0972291618       -1.3392527733        2.0124213663
 C          4.8648582331       -0.0664344819        1.5156921288
 H          4.7073559051        0.7815393864        2.1612654275
 H          5.1149040994       -1.5024687806        3.0779460324
 H          5.4792724676       -3.3858841031        1.5283467580
 H          5.4449784727       -3.0132725335       -0.9092991457
 H          5.0296647559       -0.7180970105       -1.7936280079
 H          2.7201367874        1.2716512311       -1.8727730165
 H          2.5485451193        2.3000342589        1.5852094816
 H          1.0000616470        1.2455710802        3.2153774234
 H         -0.4561540106       -0.6145409871        2.5029372767
 H         -0.6986668781       -2.4722738994        0.9431048379
 C         -0.1476779768       -2.5542219908       -1.0973780086
 C         -1.0709405732       -3.4644249308       -1.8496233468
 C         -0.5280775529       -2.2347397349       -2.5105469202
 H          0.2204606250       -2.3580210331       -3.2801785574
 H         -1.1932180251       -1.4032094276       -2.6806349076
 H         -0.7009534117       -4.4278914464       -2.1660972211
 H         -2.1105355573       -3.4709610136       -1.5553359470
 H          0.8627988564       -2.9186727094       -0.9374520443
