  62
        -98.94251429
 C         -1.4578163198       -0.9594131572       -0.4153103940
 C         -2.8098090246       -1.3612437659       -0.5606401098
 C         -3.8067609836       -0.2834670249       -0.6115767462
 C         -3.3978820162        0.9935766970       -0.5039299587
 C         -4.3075300495        2.1872518046       -0.4922766075
 C         -4.7231944339        2.5545408867        0.9389465674
 C         -5.2329122045        1.3681604741        1.7571665763
 H         -4.4106590543        0.6673807836        1.9192794159
 H         -5.5266209908        1.7505940817        2.7371399371
 C         -6.4160786772        0.6220107934        1.1248193080
 H         -7.1629235851        0.4297373864        1.8981099131
 H         -6.8886117885        1.2493731485        0.3680833131
 C         -6.0562351253       -0.7309822778        0.5079336552
 H         -6.9859958880       -1.2635929023        0.2905437770
 H         -5.5002189425       -1.3290451926        1.2344822124
 C         -5.2455801810       -0.6777459473       -0.7932369156
 H         -5.7397008312       -0.0157057243       -1.5075596614
 H         -5.2296030625       -1.6871938361       -1.2149351317
 H         -5.4972406652        3.3224305708        0.8875256972
 H         -3.8572984443        2.9774124970        1.4532689766
 H         -3.7741139190        3.0306123262       -0.9337228182
 H         -5.1885402086        1.9720487478       -1.0939057439
 O         -2.0977345155        1.3408535013       -0.3396196777
 C         -1.0922968025        0.3809556838       -0.2729021808
 O          0.0408557938        0.8552357675       -0.0868241592
 O         -3.1673793186       -2.5672773517       -0.6407828691
 C         -0.4008436937       -2.0483040158       -0.3639511187
 C          0.5667774854       -1.7792552113        0.7593257298
 C          0.1043039992       -1.8426170543        2.0713918586
 C          0.9474166513       -1.5734266232        3.1315207190
 C          2.2687093495       -1.2300462875        2.9053237852
 C          2.7408586694       -1.1679037575        1.5998601702
 C          1.8938720765       -1.4492363584        0.5369033862
 H          2.2829116582       -1.3865800551       -0.4647890585
 N          4.0799479449       -0.8431789181        1.3468760204
 S          4.5528611433       -0.0569045355       -0.0447515784
 O          4.4951418817       -0.9588517197       -1.1687658753
 O          5.8720577831        0.4485025895        0.2784785564
 C          3.4464371035        1.3183763935       -0.2919161915
 C          3.1936091500        2.1677420965        0.7652793298
 C          2.3723085541        3.2630011402        0.5610853647
 C          1.8255327385        3.4930882728       -0.6908124002
 C          2.0936769685        2.6338434801       -1.7428371589
 C          2.9109742004        1.5342766338       -1.5431808999
 H          3.1344261518        0.8344752132       -2.3327499329
 H          1.6600745531        2.8090443869       -2.7151217728
 H          1.1784732956        4.3424388168       -0.8455022955
 H          2.1534038992        3.9299042298        1.3798716712
 H          3.6332450718        1.9678309669        1.7292428682
 H          4.6118142543       -0.5433178664        2.1499860794
 H          2.9290366164       -1.0124114090        3.7309021763
 H          0.5736269451       -1.6238378146        4.1431852033
 H         -0.9320365502       -2.0978173658        2.2475427650
 H         -0.9610701563       -2.9668600307       -0.1210215670
 C          0.2909767318       -2.3021025609       -1.6947444792
 C         -0.4376095471       -2.1246753656       -2.9921138042
 C          0.6766330604       -1.1931676907       -2.6252082370
 H          1.6154881989       -1.2791739764       -3.1536665409
 H          0.4322694161       -0.1845700476       -2.3301189605
 H         -0.2706179563       -2.8461348191       -3.7777807547
 H         -1.4503707161       -1.7512468939       -2.9494888005
 H          0.9748109955       -3.1443840317       -1.6396531828
