  62
        -98.94398934
 C         -2.0661816794       -0.7402267641        0.1712500613
 C         -1.7824989689       -1.7941665275       -0.7269737587
 C         -0.8026114186       -2.7997650892       -0.2774617903
 C         -0.2484931593       -2.6691418735        0.9403076609
 C          0.8304297836       -3.5111767395        1.5636312870
 C          2.2191973131       -2.9263842918        1.2508710185
 C          2.8599435837       -3.4426149502       -0.0358031828
 H          3.7851034501       -2.8808524232       -0.1856800399
 H          3.1279031094       -4.4941396504        0.0915802558
 C          2.0022382374       -3.3052434804       -1.2960041068
 H          1.5463595587       -2.3130426347       -1.3298538978
 H          2.6683189287       -3.3702376978       -2.1594837420
 C          0.9257598040       -4.3942295089       -1.4177361422
 H          0.9884717542       -4.8537735430       -2.4068103285
 H          1.1315917927       -5.1849677000       -0.6962885846
 C         -0.5187889236       -3.9061151707       -1.2564123253
 H         -0.8771489966       -3.5231017454       -2.2175637410
 H         -1.1570394952       -4.7612586383       -1.0056818680
 H          2.1270595470       -1.8380901307        1.1961660818
 H          2.8921474598       -3.1574162937        2.0791936694
 H          0.6693257625       -3.4700100024        2.6427665860
 H          0.7556456713       -4.5443133670        1.2384100081
 O         -0.5784787294       -1.6574676304        1.7896994393
 C         -1.4678506382       -0.6595689084        1.4272619449
 O         -1.6339648829        0.2186496823        2.2948471002
 O         -2.3187099093       -1.8847757075       -1.8656619829
 C         -2.9785165137        0.3897954554       -0.2732269121
 C         -2.1726685097        1.6665676295       -0.3172821744
 C         -2.5556274643        2.8479490122        0.3033057005
 C         -1.7335947389        3.9609815671        0.2518156751
 C         -0.5161372747        3.9165252587       -0.4020120110
 C         -0.1285625994        2.7425510279       -1.0399024401
 C         -0.9671653924        1.6399281655       -1.0094613024
 H         -0.6643863100        0.7339777174       -1.5145770272
 N          1.0946542248        2.6691053238       -1.7309137824
 S          2.1447837841        1.3874955075       -1.5126097711
 O          3.3168864483        1.7478217387       -2.2795927694
 O          1.5012059410        0.1498143534       -1.8666460935
 C          2.5502892385        1.3930509886        0.2224102064
 C          3.7576291968        1.9148536523        0.6441897402
 C          4.0401264827        1.9348260904        2.0006636730
 C          3.1125685788        1.4456846864        2.9090019872
 C          1.9021135725        0.9313091003        2.4705467618
 C          1.6193472376        0.9022378175        1.1145594404
 H          0.6866364387        0.5065776328        0.7449365118
 H          1.1650104877        0.5522414051        3.1614756373
 H          3.3318424277        1.4636080760        3.9648640878
 H          4.9807483528        2.3324468400        2.3463157740
 H          4.4493636097        2.2808516531       -0.0971927737
 H          1.6122024856        3.5364480024       -1.7458149287
 H          0.1295902173        4.7812113061       -0.4250371655
 H         -2.0399854731        4.8727236937        0.7415066195
 H         -3.4920438228        2.8957202387        0.8339669044
 H         -3.2787271257        0.1372784259       -1.3011253214
 C         -4.2162914469        0.4722270708        0.5930127501
 C         -5.4826290244        1.0524811562        0.0399667133
 C         -5.3774894981       -0.4223199392        0.2827823995
 H         -5.9303424363       -0.8527305847        1.1041831512
 H         -5.2840849695       -1.0782402801       -0.5706915586
 H         -6.1131621539        1.6342425562        0.6951261611
 H         -5.4686086745        1.3991451544       -0.9823456353
 H         -3.9844648768        0.6450288488        1.6376145172
