  62
        -98.93831950
 C         -2.6304914406       -1.0159951387        0.5363887710
 C         -2.7585056902        0.2062252220        1.2468119199
 C         -3.9368457800        1.0200924721        0.9348453592
 C         -4.8247235002        0.5816541315        0.0241316596
 C         -6.0986915500        1.2740744515       -0.3779040710
 C         -5.9132616097        2.3544721504       -1.4518953620
 C         -5.2317536793        3.6364461707       -0.9721347832
 H         -5.3613189891        4.3819740200       -1.7591775839
 H         -5.7439159292        4.0082524317       -0.0841408535
 C         -3.7326236594        3.4837817905       -0.6789540031
 H         -3.1869998991        4.3164608299       -1.1286102939
 H         -3.3603796897        2.5694205900       -1.1473710023
 C         -3.3756601193        3.4586369618        0.8073857669
 H         -2.2966616593        3.3087436815        0.8965356270
 H         -3.6210079090        4.4223414723        1.2591841760
 C         -4.0757249196        2.3523549827        1.6075935979
 H         -3.5967981496        2.2817902335        2.5871862680
 H         -5.1277945195        2.5988793032        1.7491500878
 H         -5.3451126399        1.9282404395       -2.2820262216
 H         -6.9058395197        2.6141193704       -1.8272161422
 H         -6.5701158798        1.7118976424        0.5024902087
 H         -6.7584696203        0.5011636013       -0.7779477702
 O         -4.6670682906       -0.5928987592       -0.6382389093
 C         -3.5617026608       -1.4067863393       -0.4264468686
 O         -3.5538692611       -2.4254029100       -1.1438539477
 O         -1.9281230001        0.5917422325        2.1131827295
 C         -1.4092000209       -1.8642560088        0.8509973917
 C         -0.3368649209       -1.6246465901       -0.1855257086
 C         -0.3979019411       -2.1939627512       -1.4527621880
 C          0.5970815889       -1.9409463524       -2.3798919883
 C          1.6670598692       -1.1207936124       -2.0679116291
 C          1.7350564594       -0.5434151112       -0.8070786497
 C          0.7381987394       -0.8033922401        0.1249515606
 H          0.7842278196       -0.3437687392        1.1034874002
 N          2.8075502397        0.3096410387       -0.4879357405
 S          4.3512833795       -0.1958798422       -0.9566284701
 O          4.5521802496        0.1739097365       -2.3353809905
 O          4.5271689291       -1.5970070919       -0.6470145488
 C          5.3827275599        0.8070054585        0.0945525389
 C          5.6802933102        2.0985339080       -0.2968578023
 C          6.4671493105        2.8837432686        0.5306247569
 C          6.9393556204        2.3681976495        1.7286076274
 C          6.6325145101        1.0699385600        2.1075612186
 C          5.8454774698        0.2793109595        1.2851362194
 H          5.5908966695       -0.7384408102        1.5345601403
 H          7.0035342100        0.6710543507        3.0379363690
 H          7.5531325006        2.9808609199        2.3698738968
 H          6.7105232408        3.8926079882        0.2387407760
 H          5.2990735203        2.4531189973       -1.2402151126
 H          2.7928353198        0.5912857996        0.4829353892
 H          2.4510331992       -0.9242263933       -2.7816916093
 H          0.5394770988       -2.3885067633       -3.3610493379
 H         -1.2408118313       -2.8148194712       -1.7126151774
 H         -1.0355507807       -1.4762357980        1.8084484513
 C         -1.7189871813       -3.3370828685        1.0228904431
 C         -0.7165143615       -4.2085777082        1.7163924738
 C         -2.0097877614       -3.8687732372        2.3929237236
 H         -2.7573527316       -4.6407331269        2.4965574843
 H         -1.9867827612       -3.1705130364        3.2169097329
 H         -0.5722655619       -5.2150951486        1.3550349348
 H          0.1859803386       -3.7397332581        2.0790641634
 H         -2.2742879615       -3.7650869491        0.1992608935
