  62
        -98.93543772
 C         -2.4993729507       -1.3470346440        0.2412674015
 C         -2.7063974128       -0.3761935416       -0.7676063386
 C         -3.7972499422        0.5817616672       -0.5282529226
 C         -4.5353941096        0.4971507696        0.5920987491
 C         -5.7125528573        1.3578390594        0.9673200817
 C         -5.4164755877        2.8487966683        1.2199856770
 C         -5.6185064460        3.7506790074       -0.0039773606
 H         -6.3254393825        3.2701721506       -0.6815093826
 H         -6.0818583254        4.6844375284        0.3210214401
 C         -4.3484439686        4.1272779721       -0.7730008005
 H         -4.6516916672        4.5432905793       -1.7362485613
 H         -3.8208438526        4.9130385630       -0.2275158182
 C         -3.3536784296        2.9919283051       -1.0155718180
 H         -2.6055062258        3.3409468265       -1.7304170711
 H         -2.8159363843        2.7704159172       -0.0903963218
 C         -3.9848803657        1.6836997109       -1.5306992270
 H         -3.4843644459        1.3637546926       -2.4468179587
 H         -5.0420215779        1.8260254259       -1.7493833843
 H         -6.1032162781        3.1781952639        2.0012800936
 H         -4.4056072368        2.9577174381        1.6119963014
 H         -6.1143814589        0.9151426765        1.8809899762
 H         -6.4744439419        1.2669377108        0.1897430324
 O         -4.3100420562       -0.4555401840        1.5366608265
 C         -3.2958632493       -1.3829557115        1.3919211744
 O         -3.2062932974       -2.1893689896        2.3389464518
 O         -2.0338137393       -0.2902833872       -1.8314607417
 C         -1.4283026787       -2.4247652979        0.1664538932
 C         -0.0613126881       -1.8898422150        0.5233418194
 C          0.6405155600       -2.4005207993        1.6089547867
 C          1.9041871046       -1.9273894005        1.9162331185
 C          2.4911588315       -0.9346563201        1.1521901027
 C          1.7971319836       -0.4155480078        0.0671318264
 C          0.5334059679       -0.8976029461       -0.2428756554
 H         -0.0031153103       -0.4896160315       -1.0868446436
 N          2.3721658540        0.6113017709       -0.7031953919
 S          3.9190898585        0.3685046434       -1.3089075286
 O          4.0196155070        1.2378924543       -2.4607291875
 O          4.1850060872       -1.0332555709       -1.5370737803
 C          4.9853770912        0.9875690169       -0.0237130891
 C          5.9726638702        0.1764840827        0.5007056154
 C          6.7992189788        0.6821560533        1.4921199721
 C          6.6254273429        1.9832992283        1.9382110953
 C          5.6310145306        2.7860500818        1.3990514268
 C          4.8022406842        2.2870406994        0.4069241487
 H          4.0208235529        2.8786595567       -0.0401599265
 H          5.4990496599        3.7974503822        1.7484057109
 H          7.2687988190        2.3744771852        2.7104527085
 H          7.5731712888        0.0599795246        1.9119960317
 H          6.0664124895       -0.8305418790        0.1265983580
 H          1.7568557209        0.9537574837       -1.4277762979
 H          3.4743512083       -0.5615433991        1.3883454602
 H          2.4376292321       -2.3341148140        2.7617717741
 H          0.1840321152       -3.1672991050        2.2180030479
 H         -1.7050206908       -3.1649328515        0.9290263118
 C         -1.3872122450       -3.1225913349       -1.1805401998
 C         -0.7863997128       -4.4915406504       -1.2707560679
 C         -2.2668523730       -4.3106897716       -1.4198353516
 H         -2.7087563317       -4.4356793431       -2.3969840664
 H         -2.9039688290       -4.6318175547       -0.6084043512
 H         -0.2060198746       -4.7420563190       -2.1455871805
 H         -0.4200726578       -4.9380319374       -0.3587114630
 H         -1.2279733416       -2.4474128352       -2.0109923121
