  62
        -98.93114399
 C         -2.2685970050        0.5766946194        0.3526073061
 C         -3.0307375978       -0.6108261144        0.4525709544
 C         -4.3109308210       -0.6421729962       -0.2903269530
 C         -4.6598667491        0.4187681441       -1.0397093438
 C         -5.9170398319        0.6221194778       -1.8423986655
 C         -7.1302555171        0.9662591736       -0.9625320929
 C         -7.2613004268        0.1302942531        0.3081077324
 H         -6.3524614452        0.2381584482        0.9030776840
 H         -8.0838383619        0.5465756831        0.8958151707
 C         -7.5500845617       -1.3523212773        0.0855341223
 H         -7.6950492507       -1.8057342442        1.0694932658
 H         -8.4862269304       -1.4550473683       -0.4679319217
 C         -6.4642849269       -2.1430396636       -0.6468279897
 H         -6.4887603749       -1.9442544179       -1.7147985688
 H         -6.6975489591       -3.2047543605       -0.5237538801
 C         -5.0525531599       -1.9442966130       -0.1039060442
 H         -5.0536326037       -2.1376906399        0.9747785133
 H         -4.4035054852       -2.7169496055       -0.5332570656
 H         -7.0428490055        2.0136268029       -0.6630706415
 H         -8.0343642296        0.8623589304       -1.5646906545
 H         -5.7266462246        1.4611657257       -2.5152602262
 H         -6.1159419291       -0.2532426276       -2.4533493971
 O         -3.8757073754        1.5321750718       -1.1311827892
 C         -2.6844785378        1.6429619180       -0.4477698923
 O         -2.0878114296        2.7262603994       -0.6234196325
 H          1.2648831269        2.1191953245        0.3178491937
 C          1.2774153664        1.0913836903       -0.0213322159
 C          0.2045206010        0.2620051290        0.2702548198
 C          0.2338348589       -1.0510746275       -0.1903842730
 C          1.3181221543       -1.5191369167       -0.9103544560
 C          2.3936830822       -0.6910034269       -1.1845621581
 C          2.3662770705        0.6232148605       -0.7414208173
 N          3.4880639533        1.4566904172       -0.9972698903
 S          4.6860885149        1.2746783827        0.1787874504
 O          4.1048003931        1.1900563048        1.5011977487
 O          5.6179967605        2.3591605348       -0.0360767714
 C          5.4362500949       -0.2758282760       -0.2576829028
 C          5.1268096116       -1.4075439572        0.4705066458
 C          5.6915048591       -2.6171095337        0.0973938465
 C          6.5491310657       -2.6720317849       -0.9909330143
 C          6.8512713469       -1.5249840855       -1.7101352628
 C          6.2896047331       -0.3125326963       -1.3431876167
 H          6.4989866984        0.6044689563       -1.8685982642
 H          7.5196989803       -1.5724924888       -2.5547020992
 H          6.9854734850       -3.6152286108       -1.2797377517
 H          5.4574221385       -3.5099539199        0.6545255239
 H          4.4537344924       -1.3175337060        1.3079883330
 H          3.2382419943        2.4361774119       -1.0414949706
 H          3.2401567095       -1.0470616543       -1.7487344110
 H          1.3275554688       -2.5402761573       -1.2594655926
 H         -0.6023097502       -1.6979392948        0.0288387214
 C         -0.9509641602        0.7888914643        1.0792046394
 H         -0.8355425198        1.8834386411        1.1395342640
 C         -0.9577401545        0.2687038236        2.5105670837
 C         -0.1969804199       -0.9326125110        2.9748577888
 C          0.2619101972        0.4369378571        3.3693172183
 H          0.1350926170        0.7550301374        4.3932970489
 H          1.1577413627        0.8188106404        2.8992564742
 H         -0.6654154240       -1.5602637165        3.7173771908
 H          0.3930190375       -1.4773954034        2.2558056177
 H         -1.9150811182        0.4418414284        2.9924980181
 O         -2.6870253163       -1.6139888206        1.1274520681
