  62
        -98.94410841
 C         -2.1992938307       -0.8000795894       -0.0340601286
 C         -2.9255848807       -0.1490237193        0.9903850713
 C         -3.6813846706        1.0436644508        0.5847518212
 C         -3.6104495104        1.4634985307       -0.6920031889
 C         -4.3588156003        2.6383248608       -1.2506764090
 C         -5.7173392503        2.2111018209       -1.8234347890
 C         -6.5388295504        1.3366821810       -0.8762383390
 H         -6.0267227406        0.3816337010       -0.7384939090
 H         -7.4884346104        1.1234969111       -1.3716638591
 C         -6.8092352005        1.9682553811        0.4965512809
 H         -7.8590450805        1.8119890312        0.7533371008
 H         -6.6448331604        3.0453099211        0.4482399909
 C         -5.9798601806        1.3804889611        1.6398883910
 H         -6.0666610607        0.2909880311        1.6329243110
 H         -6.4016620406        1.7358207112        2.5839037509
 C         -4.4897668506        1.7450091909        1.6400068311
 H         -4.0698047507        1.4277228809        2.5993344911
 H         -4.3758713105        2.8280873509        1.5582293710
 H         -5.5434402603        1.6493339308       -2.7439671790
 H         -6.2832875402        3.1097889609       -2.0751683891
 H         -4.5001609303        3.3791672208       -0.4660132190
 H         -3.7596869502        3.0781678407       -2.0497559389
 O         -2.8724460104        0.8324946006       -1.6403799788
 C         -2.1566812906       -0.3184153495       -1.3429505687
 O         -1.5342028306       -0.8000596996       -2.3068663086
 H          0.0407659993        0.1074250104        0.9062226715
 C          0.6497011793       -0.6375219697        0.4075134415
 C          0.0626532192       -1.8326060996        0.0096763316
 C          0.8611050291       -2.7845454397       -0.6103376183
 C          2.2015260292       -2.5300971199       -0.8449107383
 C          2.7743439293       -1.3293031499       -0.4697322583
 C          1.9894483993       -0.3757081198        0.1657789716
 N          2.5541613194        0.8557234602        0.5382023416
 S          4.0118707594        0.8603697901        1.3691762417
 O          4.1734664692       -0.3354812999        2.1632795318
 O          4.0302461194        2.1159049601        2.0878265616
 C          5.2407722994        0.9120056999        0.0821074718
 C          6.2483389893       -0.0320999602        0.0524256619
 C          7.2016317394        0.0369607496       -0.9517347981
 C          7.1310228196        1.0435871496       -1.9024237081
 C          6.1138328697        1.9854917397       -1.8570977982
 C          5.1585982396        1.9229208198       -0.8553055183
 H          4.3543664197        2.6361955099       -0.7836653784
 H          6.0615863298        2.7667254496       -2.5982866683
 H          7.8729265396        1.0949912695       -2.6835884781
 H          7.9934152294       -0.6938314505       -0.9886116480
 H          6.2596681292       -0.8000195002        0.8094175719
 H          1.8973345694        1.4939070902        0.9627975715
 H          3.8151858093       -1.1246749200       -0.6596961582
 H          2.8079083891       -3.2768963000       -1.3341886482
 H          0.4331816590       -3.7252290397       -0.9152601383
 C         -1.4024339009       -2.0459253094        0.3047264215
 H         -1.5133038310       -2.1780277594        1.3920515915
 C         -1.9913993210       -3.2539530994       -0.3938206085
 C         -1.8985079111       -4.6127106394        0.2317338616
 C         -3.2142172211       -3.8973915593        0.1858589114
 H         -3.9769851210       -4.2576559792       -0.4880230086
 H         -3.6042173611       -3.4819926692        1.1038992314
 H         -1.3985687812       -4.6915064694        1.1853718616
 H         -1.7601845012       -5.4684108394       -0.4117710884
 H         -1.9293885309       -3.1791214795       -1.4736802685
 O         -2.9336704608       -0.5412333792        2.1897443413
