  62
        -98.93779026
 C         -1.7850139831       -1.0603194498        0.4521169407
 C         -2.7187204002       -0.9389717649       -0.6033085689
 C         -4.0235426362       -0.3383494210       -0.2614953617
 C         -4.2460225785        0.1033178086        0.9898617327
 C         -5.4731340332        0.7158297329        1.6326609956
 C         -6.6442131410        1.1969511710        0.7804144061
 C         -6.3444517124        2.4229356032       -0.0821080395
 H         -7.2052848582        2.6056898129       -0.7288949664
 H         -6.2325903676        3.2895671518        0.5745229338
 C         -5.0862591616        2.3336321541       -0.9422772927
 H         -4.9834002155        3.2782679218       -1.4834137376
 H         -4.2080828969        2.2358769485       -0.3003958104
 C         -5.0763642563        1.2058688181       -1.9719154240
 H         -4.1981771911        1.3486624500       -2.6075133164
 H         -5.9629386957        1.2785789375       -2.6049243454
 C         -5.0024804892       -0.2172441238       -1.3939288898
 H         -4.6398643564       -0.8812569972       -2.1839780601
 H         -5.9847924007       -0.5731198591       -1.0931008061
 H         -7.4429703165        1.4707191448        1.4751376881
 H         -7.0246366198        0.3832154488        0.1701145402
 H         -5.8441127328       -0.0373784762        2.3366548536
 H         -5.1069257253        1.5494019664        2.2407123813
 O         -3.2933590161        0.0060806953        1.9645400089
 C         -2.0558766134       -0.5578284290        1.7251652448
 O         -1.2908951942       -0.5532406148        2.7120792527
 O         -2.4976950512       -1.3222812775       -1.7804906230
 C         -0.4064402115       -1.6668831759        0.2418201978
 C          0.4459322701       -0.6694575185       -0.5037302006
 C          0.6387014668       -0.7076377532       -1.8785280483
 C          1.4226909754        0.2486372439       -2.5013814393
 C          2.0397210677        1.2472242731       -1.7695383175
 C          1.8515053917        1.2922708239       -0.3942455919
 C          1.0569921616        0.3418596072        0.2271448815
 H          0.9001760497        0.3828291526        1.2978024529
 N          2.5316640271        2.2730933601        0.3631520456
 S          4.2052018043        2.1235440091        0.2972547258
 O          4.7027141984        2.7074418438        1.5227076594
 O          4.6836244783        2.7154414094       -0.9261511354
 C          4.4739619549        0.3598966003        0.2703931533
 C          4.7643882131       -0.2703710510       -0.9225480816
 C          4.8515124216       -1.6529416500       -0.9447824504
 C          4.6434601057       -2.3773837916        0.2184715160
 C          4.3602262342       -1.7290107528        1.4109739535
 C          4.2687002120       -0.3470170218        1.4385257631
 H          4.0496176364        0.1909388834        2.3474228703
 H          4.2003275774       -2.2942717791        2.3154216736
 H          4.7026237720       -3.4543521349        0.1969685209
 H          5.0721205522       -2.1608090749       -1.8695493684
 H          4.9162183061        0.3299554850       -1.8041690292
 H          2.2334826498        2.2957367852        1.3285999873
 H          2.6713083825        1.9867593951       -2.2350591841
 H          1.5599949526        0.2119210243       -3.5712162751
 H          0.1578014440       -1.4761516664       -2.4602606510
 H          0.0212236934       -1.7779547202        1.2475187157
 C         -0.4491902395       -3.0297256525       -0.4156387188
 C          0.7982185526       -3.8604083418       -0.4192174115
 C         -0.3636297987       -4.2557237489        0.4404320062
 H         -0.9446027100       -5.1209641311        0.1582547645
 H         -0.2817630246       -4.1165526142        1.5087320945
 H          1.0184732815       -4.4566769852       -1.2909568588
 H          1.6699499323       -3.4438267582        0.0632606985
 H         -1.0944094203       -3.0733611840       -1.2829903303
