  62
        -98.93432718
 C         -2.5098713095       -0.1602495290       -0.7176645699
 C         -2.4430207795       -0.8175753006        0.5353171954
 C         -1.9350592836       -2.1943041960        0.5036145879
 C         -1.5432484202       -2.7378815940       -0.6622219596
 C         -0.9567002007       -4.1110723284       -0.8455834936
 C          0.5470988298       -4.1730076302       -0.5413861508
 C          0.9138950325       -4.1398852941        0.9434063385
 H          0.3126091044       -4.8721654994        1.4839295071
 H          1.9571592810       -4.4530466352        1.0195168251
 C          0.7673978897       -2.7596077878        1.5993772186
 H          1.6425953004       -2.5619921250        2.2239269863
 H          0.7462641666       -1.9895501751        0.8244318895
 C         -0.4609113240       -2.6041581713        2.4962616645
 H         -0.3621318856       -3.2548104698        3.3688540715
 H         -0.4979029199       -1.5693699626        2.8463563940
 C         -1.7958799825       -2.9166751146        1.8101548007
 H         -2.6018855379       -2.5723176014        2.4632684061
 H         -1.9004249355       -3.9911786156        1.6605836688
 H          0.9287907664       -5.1030171144       -0.9698685664
 H          1.0378652032       -3.3401175175       -1.0519856096
 H         -1.4894935006       -4.8292027824       -0.2212360232
 H         -1.1097280063       -4.3782953730       -1.8934611435
 O         -1.6472860308       -2.0812160806       -1.8493404517
 C         -2.0988106348       -0.7738554306       -1.8991414921
 O         -2.1012742319       -0.2727785192       -3.0457175503
 O         -2.7768156395       -0.2866932315        1.6245783067
 C         -2.8974415277        1.3138814381       -0.7840093580
 C         -1.9657570082        2.0451552825        0.1582378448
 C         -2.2778517621        2.9273135028        1.1822283888
 C         -1.2744498632        3.4724938131        1.9704165192
 C          0.0522442118        3.1433680707        1.7809753090
 C          0.3815313594        2.2556425597        0.7597753002
 C         -0.6170973907        1.7572631585       -0.0533979894
 H         -0.3446556581        1.0963559543       -0.8637521249
 N          1.7080170771        1.8268713233        0.5856331324
 S          2.1879976094        0.9214979462       -0.7443148500
 O          2.0737338369        1.7037534166       -1.9581513979
 O          1.5128210140       -0.3505994053       -0.7286750601
 C          3.9059512925        0.6922714075       -0.3302806144
 C          4.8507354661        1.5721179653       -0.8232547122
 C          6.1788761251        1.3991979835       -0.4662734793
 C          6.5371794570        0.3565491081        0.3749032277
 C          5.5779344195       -0.5199925819        0.8601314941
 C          4.2485653566       -0.3525765734        0.5065094329
 H          3.4678539392       -1.0116053422        0.8500732392
 H          5.8601626870       -1.3318048683        1.5108128060
 H          7.5711572109        0.2238696282        0.6513632698
 H          6.9272717295        2.0763814539       -0.8450353543
 H          4.5269345103        2.3605518720       -1.4835568535
 H          2.4043330564        2.5004030815        0.8694229494
 H          0.8228140364        3.5508595120        2.4164515323
 H         -1.5421023140        4.1581787482        2.7602979641
 H         -3.2956537042        3.1940477841        1.4006623573
 H         -2.6242018291        1.6375253639       -1.8039645820
 C         -4.4100380948        1.4370924918       -0.6976041097
 C         -5.2045379968        1.5428427810        0.5654912362
 C         -5.1648637135        2.6968151973       -0.3929474062
 H         -6.0524308089        2.8971602054       -0.9752142631
 H         -4.6102233677        3.5842505735       -0.1367408498
 H         -6.1158522934        0.9659927742        0.6308045714
 H         -4.6634619359        1.5897538177        1.4958256533
 H         -4.8476505609        0.8108646639       -1.4734727453
