  62
        -98.93945439
 C         -2.3651429248       -1.2372270158       -0.0637129134
 C         -3.4099902648       -0.8201560335        0.7971201305
 C         -4.2987150847        0.2438999206        0.3012462715
 C         -4.0671208400        0.7838774210       -0.9098236626
 C         -4.8140893635        1.8481719790       -1.6863397942
 C         -5.8452279027        2.7386672172       -0.9978763488
 C         -5.2676959218        3.7064900312        0.0342836871
 H         -4.6773016643        4.4621170764       -0.4902394034
 H         -6.0987769971        4.2163544956        0.5263814280
 C         -4.3699228328        3.0792588600        1.0980553457
 H         -3.4803281729        2.6563829294        0.6257109008
 H         -4.0292791865        3.8792814128        1.7610856847
 C         -5.0308540622        2.0084315094        1.9639112761
 H         -5.9408331510        2.4099695100        2.4137606728
 H         -4.3359818475        1.7658323068        2.7722695308
 C         -5.3780135943        0.6941832975        1.2432322000
 H         -5.4710621235       -0.0903093734        1.9996920047
 H         -6.3322122756        0.7655195035        0.7269917323
 H         -6.3128070187        3.3369564281       -1.7846327464
 H         -6.6301612401        2.1328633907       -0.5549762473
 H         -4.0430397364        2.4781861646       -2.1415805644
 H         -5.3071786767        1.3220034752       -2.5113519823
 O         -3.0399801423        0.3565509613       -1.7008293003
 C         -2.1654016298       -0.6436137331       -1.3083920877
 O         -1.2859724872       -0.9007802547       -2.1542207250
 H          0.7624635809       -1.9889972619       -1.1838930658
 C          0.9077776362       -1.5686370639       -0.2012477233
 C         -0.0966871785       -1.6739240453        0.7485374440
 C          0.1016371095       -1.0881273952        1.9957315441
 C          1.2771961868       -0.4199543618        2.2826211567
 C          2.2740184816       -0.3095608354        1.3285117692
 C          2.0773951732       -0.8739694713        0.0759456357
 N          3.0749027370       -0.7437465666       -0.9083077409
 S          3.6557825301        0.8044511994       -1.2110355429
 O          2.6784568868        1.8182174870       -0.8867148488
 O          4.1275772639        0.7751550350       -2.5785831289
 C          5.0613434058        0.9400289165       -0.1240403323
 C          5.1431199291        1.9874604303        0.7723841589
 C          6.2500125370        2.0745266421        1.6026405991
 C          7.2507923170        1.1185720342        1.5210646450
 C          7.1551237062        0.0742822438        0.6132219729
 C          6.0518216074       -0.0179363983       -0.2199842522
 H          5.9401973208       -0.8100447325       -0.9412797123
 H          7.9355417717       -0.6670022057        0.5524121427
 H          8.1103251315        1.1880498806        2.1688788311
 H          6.3258912448        2.8859955140        2.3085105130
 H          4.3377624285        2.7042233372        0.8036557463
 H          2.8291903869       -1.1953576002       -1.7783440095
 H          3.1878934662        0.2213766814        1.5394549336
 H          1.4185039623        0.0247616296        3.2559629396
 H         -0.6874596072       -1.1499583365        2.7319675570
 C         -1.4228302058       -2.3212182544        0.4351944025
 H         -1.8614515722       -2.6735153147        1.3782177663
 C         -1.3234161819       -3.4902553621       -0.5216849562
 C         -0.7161582879       -4.7742804224       -0.0435906826
 C         -2.1899660300       -4.6923094411       -0.3007750368
 H         -2.5935071707       -5.2002452664       -1.1638999544
 H         -2.8575478284       -4.6778530374        0.5481490374
 H         -0.3820751335       -4.8133414534        0.9820730853
 H         -0.1050617169       -5.3423807702       -0.7280636871
 H         -1.1447981994       -3.1954097597       -1.5483319296
 O         -3.6019287210       -1.3257804577        1.9347134527
