  62
        -98.94681898
 C          1.7623095790        1.3773882600       -0.0533903912
 C          2.8979077799        0.7279477408        0.4904384579
 C          3.3324968802       -0.5001372490       -0.1856673523
 C          2.6371412797       -0.9472839295       -1.2468393717
 C          2.9368704799       -2.2108685394       -1.9991020119
 C          2.1451608811       -3.3963577799       -1.4309584612
 C          2.2450260424       -3.5386982397        0.0879307188
 H          1.7290635622       -2.6958345500        0.5552374191
 H          1.6853696332       -4.4353449600        0.3654565993
 C          3.6782398929       -3.6423999987        0.6284142477
 H          3.7094375840       -4.4365579286        1.3774932477
 H          4.3567448724       -3.9285098783       -0.1764579128
 C          4.2005885326       -2.3738090083        1.3053989072
 H          3.4679967229       -2.0256691787        2.0385858677
 H          5.1135162132       -2.6299918577        1.8500870465
 C          4.5370474411       -1.2065974782        0.3689365968
 H          5.0824117810       -0.4587806478        0.9523601864
 H          5.1863702907       -1.5558821378       -0.4365321936
 H          1.0901072508       -3.2631653706       -1.6823451604
 H          2.5006698014       -4.3109645197       -1.9101887014
 H          2.6542117790       -2.0651886896       -3.0432979817
 H          4.0047759801       -2.4148530987       -1.9462093227
 O          1.5490106989       -0.3060048503       -1.7367341709
 C          1.0586536586        0.8414114194       -1.1323628706
 O          0.0181218979        1.2803796687       -1.6588043599
 O          3.5171160004        1.1556139513        1.5030191074
 C          1.2366839588        2.6071117197        0.6673667491
 C         -0.2434851309        2.4468352387        0.9105686902
 C         -1.1984346118        3.4033927781        0.5928841109
 C         -2.5417656214        3.1579328672        0.8241271320
 C         -2.9628686502        1.9482745270        1.3444592924
 C         -2.0135679294        0.9845374576        1.6643254217
 C         -0.6690241197        1.2524263085        1.4800934807
 H          0.0554625210        0.4925085590        1.7366879702
 N         -2.3791479082       -0.2916928526        2.1485799021
 S         -2.0956173081       -1.5621453025        1.0854059520
 O         -2.5541977168       -2.7481591227        1.7780662424
 O         -0.7170457385       -1.5561946116        0.6740804409
 C         -3.1929447894       -1.2185154233       -0.2789359472
 C         -2.8246590708       -0.2911254831       -1.2327249576
 C         -3.7344762917        0.0327067262       -2.2288776269
 C         -4.9840544914       -0.5663646946       -2.2532063459
 C         -5.3367327900       -1.4968733848       -1.2867698655
 C         -4.4364826190       -1.8224537341       -0.2859536962
 H         -4.6640470380       -2.5399577542        0.4860530240
 H         -6.3080299097       -1.9642976154       -1.3078924148
 H         -5.6858481321       -0.3064748551       -3.0300490554
 H         -3.4523560628        0.7572303963       -2.9759250872
 H         -1.8455873810        0.1625474075       -1.2010721384
 H         -3.3387310479       -0.3433129232        2.4647370128
 H         -4.0125776400        1.7443445863        1.4944425232
 H         -3.2723189021        3.9111633067        0.5717577125
 H         -0.8956090127        4.3348915983        0.1437786706
 H          1.7435500296        2.5819151101        1.6475177287
 C          1.6110398774        3.9330055199        0.0225004887
 C          2.7937020067        4.0423757706       -0.8915991422
 C          1.4079338061        4.1968944497       -1.4384000812
 H          1.0856298152        5.1825279994       -1.7408943110
 H          0.9977984862        3.3978368593       -2.0350500408
 H          3.4209342161        4.9179353010       -0.8150817728
 H          3.3353294371        3.1355633009       -1.1197589426
 H          1.4511515874        4.7701612898        0.6951148388
