  62
        -98.93681114
 C          1.1639384909        1.3591811290        0.7670107903
 C          2.1386449207        1.2682632981       -0.2559847398
 C          3.2740049500        0.3767130072        0.0240553002
 C          3.3135166197       -0.3017321527        1.1848413102
 C          4.3769062989       -1.2904687535        1.5647077902
 C          3.9866705577       -2.7135305033        1.1415804004
 C          3.5179417374       -2.8235336930       -0.3097247095
 H          3.3071065666       -3.8782447129       -0.5018312894
 H          2.5693966179       -2.2908151623       -0.4197878795
 C          4.5254684377       -2.3051440840       -1.3458066697
 H          4.5779892270       -3.0217322541       -2.1681987796
 H          5.5190594978       -2.2505562947       -0.8990233699
 C          4.1690781287       -0.9493561238       -1.9582102998
 H          3.1356559087       -0.9702193630       -2.3144843797
 H          4.8130098187       -0.7891332344       -2.8271508999
 C          4.3348243398        0.2633606962       -1.0340006300
 H          5.3302325999        0.2521987155       -0.5855708901
 H          4.2417516304        1.1635792862       -1.6484297801
 H          4.8456152072       -3.3688374439        1.2994177404
 H          3.1724475075       -3.0568727625        1.7845420405
 H          5.3161871791       -1.0051057343        1.0948881600
 H          4.4998693091       -1.2653129635        2.6489286902
 O          2.3505935199       -0.1986245918        2.1369182803
 C          1.2424927405        0.6082530790        1.9384724704
 O          0.4074221306        0.5761907198        2.8674034805
 H         -0.5695121104       -0.2307690197        0.0023470407
 C         -0.9573144100        0.4000740905       -0.7822816993
 C         -0.7592543489        1.7768689503       -0.7043237895
 C         -1.2403243585        2.5495214706       -1.7529824395
 C         -1.8784485891        1.9554396710       -2.8312665793
 C         -2.0807709402        0.5903252011       -2.8897026591
 C         -1.6075612007       -0.1971322091       -1.8460996091
 N         -1.7786580118       -1.5896917690       -1.8390061589
 S         -1.9984630522       -2.3801343086       -0.3818021188
 O         -0.7443798222       -2.5073831396        0.3175999110
 O         -2.6408356733       -3.6249409882       -0.7492802686
 C         -3.1493323613       -1.3580653776        0.5219425012
 C         -4.4298755413       -1.2566381566        0.0115989014
 C         -5.3469035505       -0.4383938658        0.6491392414
 C         -4.9687137598        0.2674694640        1.7815292213
 C         -3.6835005698        0.1492227930        2.2858331711
 C         -2.7610997906       -0.6711554278        1.6536838411
 H         -1.7529777006       -0.7694473486        2.0276803810
 H         -3.3811850993        0.6944986329        3.1659275410
 H         -5.6784208992        0.9117120746        2.2759779013
 H         -6.3488412905       -0.3499177051        0.2613989715
 H         -4.6885271918       -1.8292072065       -0.8642485985
 H         -2.3708461422       -1.9564821986       -2.5689169088
 H         -2.5832898707        0.1371768215       -3.7300015690
 H         -2.2317171387        2.5771866912       -3.6399154293
 H         -1.1146271076        3.6164032505       -1.7653224896
 C         -0.0706804684        2.2292654399        0.5645089004
 H         -0.7520132485        1.9588609706        1.3900253905
 C          0.3206074128        3.6795006496        0.8047211202
 C          0.7984870034        4.6397182991       -0.2378046500
 C         -0.5110727463        4.8778094403        0.4554770602
 H         -0.5563855756        5.6779775504        1.1797956501
 H         -1.4335172565        4.7328094509       -0.0815846097
 H          0.8187820430        4.3024065090       -1.2607507100
 H          1.6337263040        5.2768071285        0.0154037498
 H          0.8349164330        3.7402334693        1.7624653801
 O          2.0653294411        1.8878249680       -1.3468126499
