  62
        -98.94526733
 C          1.0058187507        1.3132052200        0.1563856300
 C          1.3923217698        0.0994854296        0.7745824599
 C          2.4041750895       -0.6906302209        0.0607661901
 C          2.8389068801       -0.2693702810       -1.1408291398
 C          3.8956965199       -0.9525992815       -1.9587443296
 C          5.2897597701       -0.3927609024       -1.6422747391
 C          5.6003222298       -0.3192422928       -0.1472300890
 H          6.6195302200        0.0599324366       -0.0449171487
 H          4.9373703201        0.4133994676        0.3187825309
 C          5.4757776788       -1.6580365428        0.5933147107
 H          5.4997148785       -2.4804281527       -0.1223665694
 H          6.3397709785       -1.7754574034        1.2508336010
 C          4.2283960884       -1.7842906122        1.4701208604
 H          4.1520425188       -0.9123559522        2.1246633505
 H          4.3511042777       -2.6626926123        2.1092413803
 C          2.8987109185       -1.9457081313        0.7219338000
 H          2.9835247183       -2.7550036612       -0.0050684201
 H          2.1338361582       -2.2149594209        1.4549832098
 H          6.0342530599       -1.0166304128       -2.1402504690
 H          5.3603807508        0.6158211476       -2.0561401490
 H          3.8686610492       -2.0218643915       -1.7597043197
 H          3.6772229103       -0.7814032512       -3.0140539496
 O          2.3920043709        0.8663296794       -1.7344816597
 C          1.4800858312        1.6958071299       -1.0986939799
 O          1.1808753120        2.7161338001       -1.7465308898
 O          0.9173169092       -0.3009875302        1.8712923097
 C         -0.0163027490        2.1951624705        0.8534054498
 C         -1.2765314687        2.2171988514        0.0251910795
 C         -1.8030602579        3.3610400318       -0.5586237405
 C         -2.9395771377        3.2816154726       -1.3450346208
 C         -3.5807751984        2.0735033930       -1.5464180112
 C         -3.0676506293        0.9236336926       -0.9557893912
 C         -1.9213113094        1.0034586618       -0.1836718009
 H         -1.5193045901        0.1089408915        0.2708618691
 N         -3.6808384100       -0.3248331770       -1.1440393815
 S         -3.7956193710       -1.3782182671        0.1515112683
 O         -4.8638842514       -2.2849589564       -0.2164710421
 O         -3.9778887409       -0.6685566872        1.3966234183
 C         -2.2675842515       -2.2888293281        0.1648046486
 C         -1.7047630120       -2.6286405786        1.3783973287
 C         -0.5604919025       -3.4089234193        1.3920565989
 C         -0.0011271225       -3.8317641994        0.1969178490
 C         -0.5722113119       -3.4727717589       -1.0143010511
 C         -1.7209127014       -2.6986667682       -1.0348585613
 H         -2.1938662410       -2.4036832578       -1.9570293314
 H         -0.1271950819       -3.7955611591       -1.9419020311
 H          0.8871342572       -4.4432893400        0.2109545091
 H         -0.1100013429       -3.6775046697        2.3341345990
 H         -2.1633007621       -2.2666838184        2.2848716686
 H         -4.5337886798       -0.3036525264       -1.6842799518
 H         -4.4690485683        2.0153955136       -2.1571877814
 H         -3.3347169671        4.1755997129       -1.8034234408
 H         -1.3179225774        4.3114486715       -0.4109285603
 H         -0.2457795395        1.6851690505        1.8005414097
 C          0.5499726918        3.5641804601        1.1602452501
 C         -0.0661894180        4.3969228403        2.2432202301
 C          1.2816753615        3.7758961295        2.4503615304
 H          2.1509368019        4.4163337190        2.4508146807
 H          1.3593740809        2.9341410593        3.1231045703
 H         -0.1224653473        5.4659252204        2.1049928502
 H         -0.9057594084        3.9770751408        2.7767945698
 H          0.9340705623        4.0688638500        0.2814746303
