  62
        -98.93595668
 C         -2.4079476069        1.0515429916        0.1474225472
 C         -3.5551442153        0.9603662328       -0.6757770610
 C         -4.6293249333        0.0793873826       -0.1946550091
 C         -4.4703061515       -0.5679485553        0.9743409349
 C         -5.4343165826       -1.5622653798        1.5566777207
 C         -5.2923747785       -2.9170987395        0.8337326104
 C         -6.5254161346       -3.3377048533        0.0335580548
 H         -7.2929152654       -3.6924111697        0.7246606455
 H         -6.2341543048       -4.1811137857       -0.5961150908
 C         -7.1538301443       -2.2526337689       -0.8461949669
 H         -7.7691057039       -1.5929049502       -0.2325852784
 H         -7.8327054341       -2.7574160926       -1.5368555913
 C         -6.1742050906       -1.3953427034       -1.6579169073
 H         -6.6154761835       -1.2134417651       -2.6400297068
 H         -5.2398703481       -1.9319458117       -1.8245145026
 C         -5.8673486267       -0.0169140117       -1.0428497778
 H         -6.7317738274        0.3274184358       -0.4684579693
 H         -5.7063041782        0.6990865841       -1.8542552712
 H         -5.0766603902       -3.6982499429        1.5641811790
 H         -4.4271022020       -2.8614213862        0.1697786589
 H         -6.4506494768       -1.1850671442        1.4678769788
 H         -5.1918176278       -1.6687348452        2.6141298586
 O         -3.3548983140       -0.4491190117        1.7403639980
 C         -2.2947827986        0.3557566045        1.3504593289
 O         -1.3384152060        0.3672196819        2.1477944634
 O         -3.6734095690        1.5853815372       -1.7644382608
 C         -1.2562237818        1.9355389427       -0.2973085089
 C         -0.0159505256        1.0963723664       -0.4797309451
 C         -0.0565930230        0.0375101099       -1.3841197109
 C          1.0486363507       -0.7660114412       -1.5831047062
 C          2.2209495382       -0.5348038151       -0.8836025056
 C          2.2763668037        0.5225022638        0.0125193901
 C          1.1640877652        1.3342039548        0.2050827482
 H          1.2245012664        2.1496997089        0.9087316361
 N          3.4575798139        0.7579035300        0.7328899533
 S          4.9248498964        0.7644174814       -0.0764523552
 O          5.8015343281        1.5746463777        0.7406791371
 O          4.7687104336        1.1755870228       -1.4523417465
 C          5.4672508159       -0.9297878317       -0.0024762058
 C          5.5514430671       -1.5332440506        1.2368865712
 C          5.9824861486       -2.8479469691        1.3129316644
 C          6.3230206181       -3.5322327240        0.1554899553
 C          6.2365139842       -2.9111727736       -1.0809677383
 C          5.8052043213       -1.5963133154       -1.1638731277
 H          5.7177570740       -1.0747225794       -2.1037755777
 H          6.5021980745       -3.4447710308       -1.9794089832
 H          6.6581804722       -4.5555368778        0.2179199834
 H          6.0508905963       -3.3343574015        2.2727004579
 H          5.2801676579       -0.9673753333        2.1125479980
 H          3.3947071347        1.5202402928        1.3913667599
 H          3.0858534894       -1.1608546193       -1.0297670817
 H          0.9991013534       -1.5835734772       -2.2863897014
 H         -0.9731966021       -0.1455386812       -1.9284680969
 H         -1.5508843530        2.3238470743       -1.2832513779
 C         -1.0814743034        3.1027856229        0.6504313890
 C         -0.4114014740        4.3576516548        0.1780981896
 C         -1.8888220542        4.3450433319        0.4284837745
 H         -2.2712010536        4.8718484790        1.2898411190
 H         -2.5537483739        4.3597522213       -0.4225678008
 H          0.2202554302        4.8981595537        0.8672145857
 H         -0.0693082555        4.3857156715       -0.8455690744
 H         -0.9210491535        2.7901990007        1.6762712439
