  62
        -98.94295735
 C         -2.4949669368       -0.8522412883        0.4886505863
 C         -2.5637464888        0.3397687871       -0.2718240913
 C         -3.7271586709        1.1952820639       -0.0053234076
 C         -4.6238056066        0.8350669694        0.9308919059
 C         -5.8485830500        1.6126829050        1.3302425285
 C         -7.0640245658        1.3713914635        0.4245205287
 C         -6.9770753978        2.0064523788       -0.9638476611
 H         -7.9733797259        1.9459279519       -1.4063697421
 H         -6.7293364502        3.0636192444       -0.8635880994
 C         -5.9755759724        1.3282932265       -1.9091640092
 H         -6.4390511679        1.1837899276       -2.8877614278
 H         -5.7253337248        0.3368321371       -1.5245724484
 C         -4.6825798718        2.1130024774       -2.1315699656
 H         -4.9078012321        3.0544135763       -2.6375902841
 H         -4.0336671354        1.5256449980       -2.7861574586
 C         -3.9030230511        2.4231297416       -0.8468975973
 H         -2.9079075492        2.7781126961       -1.1259148431
 H         -4.4078796508        3.2049882686       -0.2800381310
 H         -7.2163683176        0.2942727446        0.3238652132
 H         -7.9373576751        1.7838674140        0.9350184165
 H         -6.1044525243        1.2908074032        2.3420162635
 H         -5.6157040199        2.6775910814        1.3527962316
 O         -4.5043349313       -0.3068990829        1.6602287747
 C         -3.4525490378       -1.1827541746        1.4470879333
 O         -3.4753400634       -2.2006944879        2.1690954833
 H          0.9115039632       -1.6743395613       -1.3141555588
 C          1.0200296902       -1.1562377408       -0.3740656525
 C         -0.0305068512       -1.1313133620        0.5284197610
 C          0.1489245693       -0.4625467713        1.7368587344
 C          1.3394768392        0.1768777312        2.0213907596
 C          2.3801285638        0.1653173762        1.1083698157
 C          2.2175053718       -0.5081000343       -0.0933316481
 N          3.2639343860       -0.5187714599       -1.0285012468
 S          4.8224267351       -0.8560419677       -0.5131937829
 O          5.5048419013       -1.3583908633       -1.6857766425
 O          4.8221309375       -1.7170964719        0.6465905738
 C          5.4954922297        0.7377217988       -0.0921604042
 C          6.0581818546        0.9394795585        1.1528030932
 C          6.5919338164        2.1829233493        1.4538975225
 C          6.5545207042        3.1968631976        0.5091451618
 C          5.9873838280        2.9774947879       -0.7374796824
 C          5.4533609140        1.7364760738       -1.0451040046
 H          5.0071776937        1.5260734945       -2.0027913011
 H          5.9595024860        3.7687717161       -1.4692587432
 H          6.9698318888        4.1638455823        0.7455041471
 H          7.0333840730        2.3553046324        2.4223768249
 H          6.0607606776        0.1233408480        1.8578335268
 H          3.0460411636       -1.0026330551       -1.8871653655
 H          3.3098540825        0.6666649439        1.3220971772
 H          1.4597945777        0.6932095844        2.9618316803
 H         -0.6644695073       -0.4508978532        2.4501962284
 C         -1.3477629548       -1.8223757337        0.2715627168
 H         -1.4680378320       -2.6106477139        1.0292050333
 C         -1.4549748381       -2.4494685910       -1.1029090417
 C         -0.8789715453       -3.8088519748       -1.3596775426
 C         -2.3647269146       -3.6242710402       -1.2922964183
 H         -2.9356952806       -3.6931296051       -2.2061103584
 H         -2.8889940540       -3.9905328781       -0.4214790139
 H         -0.3919084351       -4.3094181647       -0.5362131310
 H         -0.4323046928       -4.0090124219       -2.3223146575
 H         -1.4155304375       -1.7158423399       -1.9002223999
 O         -1.7031782327        0.6738537665       -1.1266837489
