  62
        -98.93743925
 C         -1.9938713299       -0.9573065892        0.5450573900
 C         -2.0408282199       -0.2104707896       -0.6556660803
 C         -2.2447539600        1.2381098804       -0.5071198808
 C         -2.3143753300        1.7674568208        0.7274874590
 C         -2.5834621701        3.2118697909        1.0429933985
 C         -4.0839113401        3.5211814408        0.8638243084
 C         -4.3959044002        4.5017564104       -0.2668873920
 H         -5.4741390802        4.4715741402       -0.4368500920
 H         -4.1408467303        5.5120332705        0.0595196777
 C         -3.6746405702        4.2418573699       -1.5927972819
 H         -4.1832222302        4.8377041196       -2.3536193721
 H         -2.6518343602        4.6169763600       -1.5344906820
 C         -3.6330274801        2.7806523098       -2.0581566414
 H         -3.7734303701        2.7646039294       -3.1407726514
 H         -4.4558374200        2.2140740799       -1.6218897712
 C         -2.3065869800        2.0523907700       -1.7694922011
 H         -2.1181794900        1.3325989897       -2.5718181608
 H         -1.4802250001        2.7690169400       -1.7766448613
 H         -4.4832012002        3.9312091911        1.7926208282
 H         -4.6065526601        2.5791379107        0.6857109387
 H         -1.9786025402        3.8444130307        0.3968557983
 H         -2.2796693602        3.3792643613        2.0767075484
 O         -2.2264570100        1.0203739912        1.8601349193
 C         -2.0592687599       -0.3530997388        1.7983587197
 O         -1.9903687499       -0.9154565584        2.9117708999
 O         -1.9262688399       -0.7299391100       -1.7975180901
 C         -1.7681168098       -2.4576259192        0.4903927305
 C         -0.4700069798       -2.7390829094       -0.2277638194
 C         -0.3264014997       -3.7177197897       -1.2022554491
 C          0.8892196603       -3.8936065699       -1.8410413190
 C          1.9765434603       -3.0991236497       -1.5298892392
 C          1.8482646202       -2.1311297894       -0.5389915396
 C          0.6373725802       -1.9718038092        0.1121556303
 H          0.5467330301       -1.2139414390        0.8781910001
 N          2.9427864201       -1.3280785092       -0.1718818799
 S          2.6521013000        0.2494727910        0.3530277396
 O          2.2798805100        0.2154564214        1.7463741396
 O          1.7392823400        0.9257857106       -0.5414278107
 C          4.2949495900        0.9263315310        0.1933882294
 C          5.2257492100        0.6351483014        1.1729775995
 C          6.5160630700        1.1219215414        1.0371530493
 C          6.8528162400        1.8870988711       -0.0698031309
 C          5.9076060899        2.1732061407       -1.0432664410
 C          4.6154570400        1.6877343806       -0.9143872909
 H          3.8450428800        1.8884347703       -1.6416516010
 H          6.1709647399        2.7709234804       -1.9009185913
 H          7.8577132099        2.2647469011       -0.1731483011
 H          7.2525815800        0.9033655817        1.7933464494
 H          4.9138367800        0.0443559717        2.0184060597
 H          3.6928150801       -1.3577593094       -0.8495450298
 H          2.9168977003       -3.2237088398       -2.0448318592
 H          0.9858700104       -4.6509776401       -2.6041204687
 H         -1.1692053097       -4.3325757099       -1.4722759989
 H         -1.6604808298       -2.7875878488        1.5346950706
 C         -2.9652552098       -3.1527241495       -0.1238695493
 C         -3.3139438997       -4.5537658594        0.2771037912
 C         -4.1681038298       -3.4096676593        0.7315392908
 H         -5.1474858898       -3.2883190595        0.2937800907
 H         -4.1115794698       -3.1046809589        1.7666722207
 H         -3.7119644096       -5.2208720397       -0.4724863386
 H         -2.6832475397       -5.0351132491        1.0091303614
 H         -3.1358441898       -2.8525158299       -1.1512928794
