  62
        -98.93741586
 C         -2.6919150872       -0.2068573054       -0.4703148639
 C         -2.2216309726       -0.7181694871        0.7638843717
 C         -1.6223876703       -2.0593561302        0.7209488420
 C         -1.5489024986       -2.7096292901       -0.4542893472
 C         -0.8513883400       -4.0199697763       -0.6828551858
 C          0.6708901223       -3.7838183879       -0.7690625773
 C          1.4738743493       -4.4270044833        0.3617006928
 H          1.5392563901       -5.5034186924        0.1865140222
 H          2.4853984135       -4.0184010221        0.3124797251
 C          0.9223444987       -4.2134493332        1.7745055130
 H          0.1068563200       -4.9147804035        1.9597551320
 H          1.7218843101       -4.4727255369        2.4718258459
 C          0.4306059224       -2.7959826636        2.0974715258
 H          0.9112422673       -2.0562636820        1.4544734540
 H          0.7249320920       -2.5558723068        3.1217722472
 C         -1.0977734806       -2.6177158461        2.0136307532
 H         -1.5929863697       -3.5679494378        2.2339914375
 H         -1.4056420465       -1.8967890294        2.7768574407
 H          1.0451542417       -4.1713538228       -1.7183451826
 H          0.8535673432       -2.7066331735       -0.7727617481
 H         -1.0884435230       -4.7108154463        0.1231227923
 H         -1.2264817293       -4.4312581349       -1.6204818875
 O         -2.0361416950       -2.1964408987       -1.6145002391
 C         -2.5814905294       -0.9244277991       -1.6590042830
 O         -2.9261563739       -0.5500218620       -2.8002817526
 H         -0.6914018506        1.0998291017       -1.3958055427
 C         -0.8024217148        1.8745370403       -0.6453597332
 C         -2.0580944616        2.1210991494       -0.1035801488
 C         -2.1746631904        3.1212482650        0.8518348473
 C         -1.0555573651        3.8133591020        1.2854232461
 C          0.2008582192        3.5186089625        0.7866040017
 C          0.3186221349        2.5471481342       -0.1952122105
 N          1.6158264527        2.1783351066       -0.6702436484
 S          2.1192228439        0.7696572841        0.1320849983
 O          1.5068715790       -0.3969178075       -0.4709181852
 O          1.9095718168        0.9610352424        1.5433690030
 C          3.8670121875        0.7825378521       -0.2216195267
 C          4.6469224533        1.7305783245        0.4123360336
 C          6.0012703490        1.7843655666        0.1262624451
 C          6.5504178861        0.8937880994       -0.7847489961
 C          5.7553899571       -0.0532590507       -1.4114835768
 C          4.3985822011       -0.1099251223       -1.1312667220
 H          3.7428120185       -0.8310490101       -1.5929032799
 H          6.1845084682       -0.7463299133       -2.1171585374
 H          7.6050619883        0.9370478681       -1.0064057998
 H          6.6231347133        2.5184313363        0.6126656920
 H          4.1753974420        2.3945024340        1.1175316405
 H          1.5861361535        1.9501090639       -1.6569681033
 H          1.0843930979        4.0158857022        1.1513123061
 H         -1.1625935414        4.5755320877        2.0422200848
 H         -3.1398370289        3.3406574833        1.2788161812
 C         -3.1912261236        1.2272211564       -0.5493527413
 H         -3.3965997326        1.4228339638       -1.6120110295
 C         -4.4667037120        1.4138489440        0.2420412815
 C         -5.4338580898        2.4941032379       -0.1369518508
 C         -5.7738240117        1.0583573121       -0.3978662130
 H         -6.5321241569        0.5869581319        0.2087753037
 H         -5.7448084810        0.6999624822       -1.4167169221
 H         -5.1820187993        3.1158158240       -0.9827260027
 H         -5.9644704938        3.0097449269        0.6489816861
 H         -4.3416344993        1.1783141103        1.2923725875
 O         -2.2943267160       -0.0812486030        1.8480130375
