  62
        -98.94611102
 C         -1.4132856937       -0.8267564489       -0.0880933568
 C         -2.5060965588       -0.8547288948        0.8174207471
 C         -3.4689295918        0.2456389814        0.7181530196
 C         -3.2631061186        1.2280276491       -0.1773371702
 C         -4.1302897322        2.4413733909       -0.3779733071
 C         -5.3400638500        2.2022700164       -1.2917785509
 C         -6.4605259488        1.3607922889       -0.6793097284
 H         -6.7389989274        1.7793641236        0.2883157575
 H         -7.3271487022        1.4545573192       -1.3367061698
 C         -6.1196784124       -0.1274907357       -0.5203092452
 H         -6.9543875452       -0.7327019504       -0.8809390875
 H         -5.2550850080       -0.3708700591       -1.1420613703
 C         -5.8325300979       -0.5620364994        0.9169646152
 H         -6.7335338543       -0.4433646707        1.5227937301
 H         -5.5693976887       -1.6227372522        0.9083099702
 C         -4.6864224098        0.2033937566        1.5915817442
 H         -5.0064819899        1.2137085323        1.8465115355
 H         -4.4168112626       -0.3211155255        2.5115892383
 H         -4.9924460761        1.7318669159       -2.2144610988
 H         -5.7496631260        3.1811406100       -1.5517932299
 H         -4.4704229825        2.8110427979        0.5900429185
 H         -3.4951379436        3.2033478855       -0.8356736302
 O         -2.1961659235        1.2339824487       -1.0158472397
 C         -1.2532080362        0.2127109203       -1.0059117251
 O         -0.3574955004        0.3655438612       -1.8587841809
 H          0.8427748595        0.4141085125        0.4501431978
 C          1.2529699672       -0.3836881373        1.0480790972
 C          0.7095126818       -1.6568672479        0.9764637396
 C          1.2440024553       -2.6566778050        1.7824182085
 C          2.2956770616       -2.3848339689        2.6376022417
 C          2.8415187237       -1.1153107544        2.6991301004
 C          2.3124247460       -0.1068493341        1.9017856855
 N          2.8299175910        1.1944493181        1.9622111444
 S          2.9431162398        2.1312802190        0.5799537336
 O          3.9067635663        3.1534292478        0.9343153946
 O          1.6409848147        2.6071286377        0.1890099196
 C          3.6559610154        1.0442891467       -0.6405670903
 C          4.9885259410        0.7131528924       -0.4788023312
 C          5.5766348460       -0.1667574583       -1.3710589712
 C          4.8237473906       -0.7027634070       -2.4054461828
 C          3.4909897387       -0.3559755018       -2.5559370820
 C          2.8941248933        0.5259435800       -1.6664533003
 H          1.8549703523        0.8016493306       -1.7605108848
 H          2.9014433741       -0.7673775208       -3.3601997208
 H          5.2779488498       -1.3920272622       -3.0997540866
 H          6.6150003721       -0.4334681376       -1.2579999892
 H          5.5415527987        1.1633247303        0.3296210080
 H          3.6447587246        1.2995226586        2.5486784719
 H          3.6607206842       -0.8991272502        3.3674023832
 H          2.6966559581       -3.1680269973        3.2623844586
 H          0.8185620174       -3.6479454657        1.7475179451
 C         -0.4242001803       -1.9709175936        0.0257785427
 H         -0.9952872656       -2.8031114882        0.4618055304
 C          0.1511843610       -2.4283464199       -1.3013891913
 C          0.5466546084       -3.8611669454       -1.4875988259
 C         -0.6609761737       -3.3193371096       -2.1906852678
 H         -0.6179022707       -3.1575185756       -3.2570475193
 H         -1.6361156775       -3.6213305673       -1.8364990817
 H          1.4278860184       -4.0776931095       -2.0710488961
 H          0.3846926622       -4.5417391734       -0.6660674611
 H          0.7594674758       -1.6729942112       -1.7805581320
 O         -2.6688047358       -1.7688029856        1.6706425640
