  62
        -98.93950762
 C         -1.3949440920       -0.8293189965       -0.1487119499
 C         -2.5091001878       -0.8196040866        0.7289982073
 C         -3.4761936020        0.2782744519        0.5767336021
 C         -3.2577083326        1.2163713659       -0.3602110205
 C         -4.0722721269        2.4478740237       -0.6698992452
 C         -5.6001086998        2.3074171050       -0.6684239719
 C         -6.1254756782        0.9496253500       -1.1571851687
 H         -6.8775682928        1.1175446105       -1.9302539925
 H         -5.3143175716        0.3771136025       -1.6102100430
 C         -6.7723049324        0.1237973678       -0.0427370234
 H         -7.3957682843        0.7833278866        0.5648154750
 H         -7.4297168660       -0.6225313876       -0.4950921670
 C         -5.7988177140       -0.6232350767        0.8680426473
 H         -5.3284226125       -1.4412935419        0.3160412583
 H         -6.3755062569       -1.0742495450        1.6791160060
 C         -4.6755750076        0.2302068612        1.4794919680
 H         -5.0294164861        1.2270972792        1.7314485403
 H         -4.3408814808       -0.2618833418        2.3968445441
 H         -5.9822263798        2.4974187921        0.3335395537
 H         -5.9892101866        3.1014142541       -1.3082138441
 H         -3.7817386469        3.2310690138        0.0370389055
 H         -3.7345564583        2.7700353352       -1.6581816767
 O         -2.1736374923        1.1751381751       -1.1819229447
 C         -1.2162181293        0.1732255135       -1.1015933512
 O         -0.2976567654        0.3046593314       -1.9336298400
 O         -2.6868686335       -1.7014760732        1.6124005292
 C         -0.4070470380       -1.9647552818        0.0397045845
 C          0.6882274263       -1.6102526346        1.0204889507
 C          1.1775451150       -2.5686013885        1.9016691777
 C          2.1951521831       -2.2585681304        2.7847652642
 C          2.7508850804       -0.9920427230        2.8000907860
 C          2.2660077742       -0.0242550502        1.9274833460
 C          1.2410389511       -0.3391936380        1.0454946653
 H          0.8632276828        0.4273085035        0.3882182110
 N          2.7934384035        1.2739627483        1.9410380296
 S          2.9514544876        2.1510536803        0.5251337935
 O          3.9096492150        3.1831499391        0.8652428162
 O          1.6637128926        2.6154913292        0.0769701472
 C          3.6944017860        1.0134983809       -0.6295780018
 C          5.0182580653        0.6794074433       -0.4120218938
 C          5.6289807107       -0.2345548622       -1.2534256323
 C          4.9069298069       -0.8004836058       -2.2938239818
 C          3.5825951421       -0.4503961871       -2.5007265496
 C          2.9631958389        0.4653555418       -1.6622980124
 H          1.9298584802        0.7446908515       -1.8002721786
 H          3.0172130889       -0.8853063583       -3.3099751426
 H          5.3787585713       -1.5158436302       -2.9488469158
 H          6.6609105226       -0.5041286193       -1.0965464541
 H          5.5476982969        1.1535221183        0.3984817104
 H          3.5873858834        1.4040235383        2.5505260475
 H          3.5435147517       -0.7461366148        3.4897706283
 H          2.5615029456       -3.0094783062        3.4677632446
 H          0.7428582270       -3.5565228967        1.9034422051
 H         -0.9897752522       -2.7850794863        0.4826378984
 C          0.2203706846       -2.4632287919       -1.2483291360
 C          0.6608991468       -3.8909281945       -1.3564253710
 C         -0.5381616296       -3.4164864145       -2.1202475148
 H         -0.4652159349       -3.3017554730       -3.1910824430
 H         -1.5153167812       -3.7309905238       -1.7829425865
 H          1.5659843493       -4.1077293478       -1.9020127444
 H          0.4923428284       -4.5376829797       -0.5093375634
 H          0.8228767842       -1.7130000773       -1.7424648204
