  62
        -98.94213805
 C         -2.2312361378       -0.8786938274        0.1253788392
 C         -1.6400519252       -0.0680922226       -0.8712287508
 C         -2.0580238697        1.3446264743       -0.9045089952
 C         -2.8891072483        1.8054925976        0.0458438931
 C         -3.5082836992        3.1738017110        0.2019451136
 C         -2.6771121367        4.4000594808       -0.1832611792
 C         -1.1957157084        4.3242354569        0.2133553430
 H         -0.9302876193        5.2194385840        0.7793064686
 H         -1.0194777931        3.4647081381        0.8640560549
 C         -0.2589981451        4.2259375565       -0.9917056390
 H         -0.5957250131        4.9185239740       -1.7668357979
 H          0.7423641377        4.5345041128       -0.6811729448
 C         -0.1358247856        2.8214179232       -1.5767116998
 H          0.3337846437        2.1717662103       -0.8341635792
 H          0.5324531544        2.8682448602       -2.4401404278
 C         -1.4614806158        2.1709854279       -2.0088136327
 H         -2.1639026266        2.9155806627       -2.3767629674
 H         -1.2442460937        1.4698671517       -2.8193511865
 H         -2.7535368006        4.5728271470       -1.2555992986
 H         -3.1423728577        5.2572117797        0.3073687300
 H         -4.4415899646        3.1822067811       -0.3705139280
 H         -3.7831112691        3.2401373433        1.2581694720
 O         -3.3566127432        1.0064023428        1.0502538341
 C         -3.0474888280       -0.3394629282        1.1151456951
 O         -3.5493662770       -0.9392781018        2.0905662969
 H         -0.3313607349       -1.1082747660        1.9065029549
 C          0.2460352969       -1.7585946754        1.2597547454
 C         -0.4114800447       -2.5286242055        0.3078471827
 C          0.3463483744       -3.3609511160       -0.5053889233
 C          1.7267688218       -3.3846637735       -0.3971742182
 C          2.3795129951       -2.5647822275        0.5057237819
 C          1.6264938664       -1.7513338565        1.3410224696
 N          2.3043613349       -0.8334459130        2.2002475061
 S          2.2849464931        0.7071004062        1.4985690107
 O          3.0421817179        1.5568907365        2.3940514486
 O          0.9314133834        1.1481788627        1.2352895561
 C          3.1862034290        0.4395232876       -0.0084215834
 C          4.5622991891        0.5568389926        0.0334149897
 C          5.2925328160        0.3009208077       -1.1153848540
 C          4.6363922058       -0.0726861847       -2.2789839057
 C          3.2553512590       -0.1892776675       -2.3018200785
 C          2.5160937318        0.0659242821       -1.1567074317
 H          1.4404229654       -0.0271824990       -1.1528857789
 H          2.7394287853       -0.4831205112       -3.2016923698
 H          5.2038258112       -0.2751087770       -3.1737729673
 H          6.3667926908        0.3903086049       -1.0993681982
 H          5.0237166575        0.8512618279        0.9617291463
 H          1.8657812987       -0.7587141402        3.1095216031
 H          3.4549845265       -2.5397031280        0.5710105030
 H          2.3016409926       -4.0297633531       -1.0431882449
 H         -0.1445782723       -3.9776335580       -1.2402941502
 C         -1.9058757862       -2.3621489710        0.1922928374
 H         -2.3730374147       -2.7355508844        1.1153954004
 C         -2.5087690658       -3.0849370621       -0.9937348204
 C         -2.8811077092       -4.5324182573       -0.8855713786
 C         -3.9513879715       -3.4850675930       -0.9404419356
 H         -4.5444270764       -3.3966979437       -1.8381859830
 H         -4.4954709844       -3.2564770157       -0.0352126510
 H         -2.7438472458       -5.1666334534       -1.7481460726
 H         -2.7040973382       -5.0250705204        0.0584857079
 H         -2.1260165772       -2.7211615403       -1.9401930702
 O         -0.8200619975       -0.5090525432       -1.7178684045
