  62
        -98.93801234
 C          1.3856086602        1.5908758554       -0.0048035580
 C          1.9362957075        0.7377873584        0.9799550239
 C          2.9678973576       -0.2085459183        0.5232451638
 C          3.3568458268       -0.1787625525       -0.7630683111
 C          4.3379489362       -1.0989842928       -1.4345270694
 C          3.6002488363       -2.2624717984       -2.1185149868
 C          3.3071486184       -3.4611000198       -1.2159641009
 H          2.6599411748       -4.1392068414       -1.7776656938
 H          4.2394387788       -3.9929241229       -1.0145968516
 C          2.6342086047       -3.1340495685        0.1205496538
 H          2.1535225743       -4.0467189318        0.4789907778
 H          1.8471330965       -2.3930202887       -0.0334021438
 C          3.6211909037       -2.6395388275        1.1893841136
 H          3.4733907909       -3.2107989803        2.1080330555
 H          4.6365488303       -2.8528905874        0.8553421579
 C          3.5047159746       -1.1522065874        1.5637051398
 H          2.8240041050       -1.0399796107        2.4129218751
 H          4.4833721225       -0.7908703463        1.8950832337
 H          4.2006842028       -2.6130911476       -2.9604701330
 H          2.6650932358       -1.8706416514       -2.5283908145
 H          4.8472627093       -0.5118060004       -2.2015012467
 H          5.0738789503       -1.4633795974       -0.7238572302
 O          2.8351486135        0.6927410111       -1.6699952565
 C          1.8168774055        1.5715631317       -1.3308328453
 O          1.3937105845        2.2580385456       -2.2797583679
 H         -0.4134829880        0.0986319281       -0.6534711533
 C         -1.2272236400        0.8088234892       -0.7364396605
 C         -1.0493696858        2.1062043434       -0.2779054014
 C         -2.1185313690        2.9893237519       -0.3905161991
 C         -3.3213233901        2.5808279831       -0.9402940025
 C         -3.4902444956        1.2841685960       -1.3944589809
 C         -2.4266995712        0.4005224103       -1.2992916659
 N         -2.5976041826       -0.9423205247       -1.7277236815
 S         -3.3340223165       -1.8990007951       -0.5605661115
 O         -3.2187844372       -3.2617569481       -1.0283090812
 O         -4.6689943970       -1.4020680974       -0.3490145488
 C         -2.3451497823       -1.6573532902        0.9030579061
 C         -2.6380243209       -0.5982678009        1.7388183191
 C         -1.8037931845       -0.3463099506        2.8156720357
 C         -0.6942508307       -1.1475991982        3.0349656011
 C         -0.4143086358       -2.2070449125        2.1860908371
 C         -1.2411407735       -2.4616696012        1.1040173901
 H         -1.0545900888       -3.2736011247        0.4183033444
 H          0.4537512144       -2.8235612866        2.3561168491
 H         -0.0356815312       -0.9341726687        3.8612422814
 H         -2.0121239886        0.4820891644        3.4734089867
 H         -3.5081434732        0.0042039478        1.5327820342
 H         -1.7236903097       -1.3796828004       -1.9870606059
 H         -4.4244226707        0.9410082554       -1.8075755580
 H         -4.1395616329        3.2805576752       -1.0145652792
 H         -2.0071943827        4.0027190353       -0.0400169357
 C          0.2453476907        2.5039048549        0.3923462657
 H          0.1150764847        2.3445444511        1.4743374984
 C          0.5981219083        3.9598847663        0.1576206880
 C          0.1578491224        5.0179386211        1.1237974625
 C          1.5987998889        4.6131849961        1.0622975472
 H          2.3142942526        5.2974472667        0.6317999813
 H          1.9971981972        4.0172792313        1.8705954922
 H         -0.4128127472        4.7069751921        1.9859634834
 H         -0.1176595523        5.9869632799        0.7355580581
 H          0.6391685375        4.2131813902       -0.8955079324
 O          1.5680328342        0.7530100630        2.1837425666
