  62
        -98.94024106
 C         -2.4477297618       -0.9314269541       -0.0213057938
 C         -2.6398330238        0.4443037129        0.2520035001
 C         -4.0081841194        0.8333014971        0.6169165513
 C         -4.9714934043       -0.1024056300        0.6996844741
 C         -6.4066037913        0.1351836307        1.0849566121
 C         -7.2974795941        0.5960504227       -0.0767900830
 C         -7.0665203961        2.0340624358       -0.5426877344
 H         -7.8956573116        2.2935131465       -1.2039055558
 H         -7.1123510973        2.7048369202        0.3157327328
 C         -5.7476158612        2.2508588050       -1.2977213436
 H         -5.3525472510        1.2867940396       -1.6264778018
 H         -5.9353416517        2.8422982909       -2.1967468629
 C         -4.6691224600        2.9781655678       -0.4945003965
 H         -3.7680753485        3.0425170187       -1.1100105904
 H         -4.9995416562        3.9956558425       -0.2740531073
 C         -4.2923106984        2.2903306752        0.8242320376
 H         -3.3789685378        2.7540693562        1.2049298095
 H         -5.0862703572        2.4238544051        1.5586296167
 H         -7.1557114123       -0.0867060522       -0.9176756237
 H         -8.3349393060        0.5060594881        0.2532692209
 H         -6.7900775556       -0.8178622034        1.4554301911
 H         -6.4525264078        0.8663157875        1.8924498148
 O         -4.7372043818       -1.4198718332        0.4553559871
 C         -3.4813650764       -1.8626802643        0.0736736924
 O         -3.4113092659       -3.0907414143       -0.1382291496
 O         -1.7209093180        1.3026331672        0.1991174305
 C         -1.0773082426       -1.4350260313       -0.4341319254
 C         -0.0504558794       -1.0903092530        0.6174008427
 C         -0.3248750309       -1.3874607899        1.9503958936
 C          0.5942661358       -1.1033114234        2.9411239885
 C          1.8140795420       -0.5313738338        2.6240706273
 C          2.0983893439       -0.2319211885        1.2976447150
 C          1.1691096590       -0.5124984681        0.3048132604
 H          1.4191928079       -0.2703891855       -0.7142555710
 N          3.3165803148        0.3711838190        0.9456511957
 S          4.0304538353       -0.0452398205       -0.5259310501
 O          3.4404845363        0.7437245001       -1.5776274280
 O          3.9952847807       -1.4793187452       -0.7056159308
 C          5.7031770718        0.5007246302       -0.2329387908
 C          6.6597069657       -0.4175465699        0.1569765458
 C          7.9488145727        0.0241075937        0.4108808621
 C          8.2570598387        1.3692376290        0.2743238758
 C          7.2864531063        2.2790602592       -0.1185026925
 C          5.9959964895        1.8441314033       -0.3751529428
 H          5.2113812270        2.5121594418       -0.6904726022
 H          7.5305122502        3.3236185086       -0.2262612179
 H          9.2608166609        1.7105074064        0.4724852639
 H          8.7064072721       -0.6809209120        0.7130123238
 H          6.3760095350       -1.4542490046        0.2419417500
 H          3.9885359997        0.3711757343        1.7007179626
 H          2.5342203630       -0.3116091247        3.3975965062
 H          0.3636657777       -1.3365703225        3.9699049999
 H         -1.2748955922       -1.8429302999        2.1972837699
 H         -1.1553760546       -2.5318035039       -0.4825617580
 C         -0.7241376193       -0.9137540257       -1.8115492349
 C          0.2142304514       -1.6820884880       -2.6911710302
 C         -1.2465866845       -1.6266805139       -3.0208283914
 H         -1.5622251609       -1.0395230462       -3.8701294317
 H         -1.8425339489       -2.5124456163       -2.8542382890
 H          0.9087461405       -1.1306486895       -3.3078553595
 H          0.6168558216       -2.6067268233       -2.3048818397
 H         -0.6814164706        0.1694558488       -1.8483610798
