  62
        -98.93492224
 C          2.6879862402        0.2287635293       -0.2418369309
 C          2.2259834706        1.0259796294        0.8318431592
 C          1.6465608804        2.3407971693        0.4766255193
 C          1.5678020300        2.7096044292       -0.8138660007
 C          1.0553325497        3.9733707791       -1.4750732607
 C          0.3600096200        5.0539875092       -0.6533957405
 C         -1.0437634098        4.6787900993       -0.1742483600
 H         -1.7192967201        4.7151504592       -1.0324763697
 H         -1.3768437495        5.4298940093        0.5450669101
 C         -1.1842055596        3.2937776093        0.4535329002
 H         -0.8903150998        2.5218080293       -0.2612843098
 H         -2.2433745895        3.1265555994        0.6727323306
 C         -0.4127639591        3.0764091195        1.7528245500
 H         -0.6740911490        2.0788709095        2.1182926602
 H         -0.7327015988        3.8063797495        2.5003948300
 C          1.1164718809        3.1435527295        1.6308712294
 H          1.5433239012        2.6954872996        2.5336343493
 H          1.4615909208        4.1736838895        1.5809624292
 H          0.2631543998        5.9285660091       -1.3023855806
 H          0.9902358503        5.3497300593        0.1802668292
 H          1.9271805896        4.4165320091       -1.9689228610
 H          0.3849232895        3.6415040990       -2.2746127004
 O          2.0400968596        1.9094540791       -1.8164613008
 C          2.5651662497        0.6592584391       -1.5637377009
 O          2.9111027393        0.0332087490       -2.5877712609
 H          0.6370039605       -1.0361104206        0.7138893000
 C          0.8092813603       -1.8894013107        0.0749501300
 C          2.0833739901       -2.1476814908       -0.4085655704
 C          2.2759160498       -3.2607970008       -1.2178451203
 C          1.2114811397       -4.0820989409       -1.5465451799
 C         -0.0662231501       -3.7916528608       -1.1035176094
 C         -0.2674130098       -2.6816805407       -0.2905290695
 N         -1.5468785297       -2.3319534907        0.1718552609
 S         -1.8823638896       -0.6725251407        0.2696100309
 O         -1.2839677000        0.0186994792       -0.8493626994
 O         -1.5329497692       -0.2159358805        1.5897709907
 C         -3.6585091297       -0.6910530107        0.1048510715
 C         -4.2247294201       -0.4711802008       -1.1363798883
 C         -5.6042833702       -0.5201263509       -1.2626375678
 C         -6.3896251198       -0.7905537907       -0.1520754275
 C         -5.8070373093       -1.0078361006        1.0878348423
 C         -4.4285067293       -0.9583463206        1.2211851118
 H         -3.9304409289       -1.1095972605        2.1646124317
 H         -6.4206871690       -1.2140286705        1.9497881026
 H         -7.4626749898       -0.8289549308       -0.2531344671
 H         -6.0593484505       -0.3473061110       -2.2245515576
 H         -3.5734826104       -0.2563524909       -1.9687053985
 H         -2.2873666398       -2.8398520208       -0.2929073187
 H         -0.9021385302       -4.4122166809       -1.3885906591
 H          1.3736353795       -4.9427778009       -2.1775117398
 H          3.2606924297       -3.4637779409       -1.6124466607
 C          3.2090269702       -1.1933284807       -0.0927555709
 H          3.9705971100       -1.3168915508       -0.8810690812
 C          3.8818473407       -1.4850419306        1.2384293089
 C          3.2197644211       -2.2618127605        2.3321832692
 C          4.3433447308       -2.8769291105        1.5564832589
 H          5.2986814310       -3.0030847505        2.0426452985
 H          4.0948085306       -3.6584876706        0.8547791891
 H          2.2173162611       -2.6234598605        2.1609147296
 H          3.3947035915       -1.9416006304        3.3477170591
 H          4.5292485408       -0.6728948205        1.5505944486
 O          2.2961132810        0.6919759395        2.0427517592
