  62
        -98.94512824
 C          2.0470390111        1.0800975104       -0.4907129273
 C          1.0102264022        1.4123497303       -1.4002578986
 C          0.1732902215        2.5682358301       -1.0598332296
 C          0.4158595299        3.2311553800        0.0851149108
 C         -0.3499299410        4.4311121498        0.5622019700
 C         -1.5228140221        4.0358398595        1.4682104483
 C         -2.4161868811        2.9421533393        0.8826172270
 H         -1.8535636709        2.0057244095        0.8501645677
 H         -3.2380635520        2.7858650391        1.5858664859
 C         -2.9840035493        3.2606574194       -0.5074844237
 H         -4.0409967493        2.9863852192       -0.5208053051
 H         -2.9246244893        4.3339021294       -0.6936767835
 C         -2.3151553477        2.5037144297       -1.6559182929
 H         -2.9407702665        2.6164018597       -2.5454781737
 H         -2.2807669978        1.4400483197       -1.4095019130
 C         -0.9013337473        2.9639424400       -2.0336618810
 H         -0.8969740073        4.0455697700       -2.1868546208
 H         -0.6363423859        2.4821313402       -2.9795108107
 H         -2.1182299626        4.9291023893        1.6694979477
 H         -1.1222482933        3.6707988494        2.4170404988
 H          0.3333741581        5.0678864499        1.1275312609
 H         -0.7158901800        4.9845866798       -0.3010572805
 O          1.3921708888        2.8681695301        0.9510836621
 C          2.2113808693        1.7679124903        0.7126461830
 O          3.0263240282        1.5534857104        1.6283240841
 O          0.8081092438        0.7677241504       -2.4658853990
 C          2.8890372218       -0.1285635594       -0.8690661063
 C          2.1060015417       -1.3923503496       -0.6110671875
 C          2.1342726431       -2.4612751794       -1.4995161576
 C          1.3796803230       -3.5960592996       -1.2593472587
 C          0.5484175216       -3.6673282499       -0.1553879799
 C          0.5027836202       -2.5976331600        0.7302851202
 C          1.3070097303       -1.4880643499        0.5186020114
 H          1.2689401491       -0.6698000500        1.2219814115
 N         -0.3847565313       -2.5818173604        1.8275146790
 S         -1.5516095715       -1.3745138006        1.7842275476
 O         -0.9263100418       -0.0801112505        1.8418664486
 O         -2.4665978428       -1.6986615109        2.8569117264
 C         -2.3607676593       -1.6107219306        0.2124038365
 C         -3.5316105691       -2.3429353108        0.1647700549
 C         -4.1216417674       -2.5866940208       -1.0647474559
 C         -3.5278976660       -2.1070431705       -2.2231109151
 C         -2.3506257362       -1.3784744103       -2.1595041134
 C         -1.7590255479       -1.1255317103       -0.9314159726
 H         -0.8441743481       -0.5581592301       -0.8591193013
 H         -1.8763395851       -0.9978626001       -3.0503199227
 H         -3.9842506647       -2.2997782505       -3.1810856457
 H         -5.0386893872       -3.1511594309       -1.1166689672
 H         -3.9577059603       -2.6937819010        1.0908787843
 H         -0.8346703313       -3.4711062105        1.9992300783
 H         -0.0694275685       -4.5359691001        0.0152101992
 H          1.4162766141       -4.4219333595       -1.9528481888
 H          2.7362260843       -2.3902333092       -2.3932218068
 H          3.0300270933       -0.0558476992       -1.9605974661
 C          4.2691855810       -0.1553805292       -0.2332658645
 C          4.6072672296       -1.0289178592        0.9335306159
 C          5.1711091315       -1.3397968090       -0.4186842234
 H          6.2212591117       -1.1612560987       -0.5927478920
 H          4.7748945223       -2.1992305290       -0.9370034440
 H          5.2541640385       -0.6198063192        1.6940916568
 H          3.8320384992       -1.6690596294        1.3265882448
 H          4.7400503008        0.8216000009       -0.2504968937
