  62
        -98.94040693
 C          1.1393895241        0.9983221143        0.4795371446
 C          2.0267611613        0.7721337896       -0.5986938619
 C          3.0216319977       -0.2914668896       -0.3978419111
 C          3.0039986680       -1.0177267544        0.7340430166
 C          3.8981516586       -2.1814403517        1.0730563737
 C          5.3983974816       -1.8691228785        1.2345145005
 C          6.2285517364       -2.0797639224       -0.0377211593
 H          7.1819796078       -2.5356048247        0.2368943278
 H          5.7120711010       -2.7959344103       -0.6781645434
 C          6.5516056048       -0.8157377266       -0.8401038207
 H          6.9136669005       -1.1270989607       -1.8222673335
 H          7.3632679982       -0.2774095140       -0.3455183220
 C          5.3967675756        0.1682796832       -1.0273666898
 H          5.6984069309        0.9105512579       -1.7689270009
 H          5.2239382131        0.7133928822       -0.0964832132
 C          4.0655415590       -0.4762216292       -1.4605149982
 H          3.6850336109        0.0175536328       -2.3571737925
 H          4.2021024484       -1.5335101357       -1.6840792223
 H          5.7786614534       -2.5424447231        2.0043662875
 H          5.5197248531       -0.8519645744        1.6059664373
 H          3.7662936105       -2.9539797658        0.3114900615
 H          3.5122343542       -2.5778986759        2.0147526648
 O          2.0988353481       -0.7998878122        1.7274482927
 C          1.1491097445        0.2017359705        1.6236789049
 O          0.3752421959        0.2809443721        2.6008275141
 O          1.9889004493        1.4167841982       -1.6793831616
 C          0.0713737380        2.0704803832        0.3745376468
 C         -0.8987869198        1.7397881606       -0.7352452708
 C         -1.4756009229        2.6983942155       -1.5591213112
 C         -2.3847032303        2.3249417633       -2.5341560120
 C         -2.7576613729        1.0023727335       -2.6932028255
 C         -2.1896050619        0.0369373371       -1.8699509053
 C         -1.2658113195        0.4129125752       -0.9089806457
 H         -0.8099435475       -0.3500071732       -0.2972676904
 N         -2.5353074775       -1.3181224814       -1.9844312524
 S         -2.6324488851       -2.2591721118       -0.6050854523
 O         -1.3141602300       -2.5891665276       -0.1230173940
 O         -3.4549521308       -3.3826202362       -1.0024980241
 C         -3.5219826013       -1.2514111449        0.5683318441
 C         -2.8822193615       -0.6761931395        1.6466227030
 C         -3.6103994514        0.1443823386        2.4949932200
 C         -4.9554222261        0.3741596021        2.2546998329
 C         -5.5867499333       -0.2193328213        1.1715676388
 C         -4.8647203522       -1.0367378223        0.3188013772
 H         -5.3209726878       -1.5260826783       -0.5263185530
 H         -6.6348149240       -0.0448821056        0.9894064363
 H         -5.5136588250        1.0164594470        2.9173548233
 H         -3.1091207879        0.6000181157        3.3342932896
 H         -1.8330894538       -0.8610868319        1.8191794129
 H         -3.2826422706       -1.5168738492       -2.6329763631
 H         -3.4712588854        0.7159227939       -3.4501691838
 H         -2.8175429775        3.0777823046       -3.1750705695
 H         -1.2079373302        3.7357492346       -1.4428199701
 H         -0.4881819473        2.0322715461        1.3218345377
 C          0.7012422831        3.4411358770        0.2359847067
 C          0.0259415421        4.6468191554        0.8153150655
 C          1.2651351596        4.1015819048        1.4571246657
 H          2.1858120187        4.6577871547        1.3645114014
 H          1.1678523581        3.5733190893        2.3948647515
 H          0.0979472865        5.5833338533        0.2830768924
 H         -0.9134484260        4.4981264422        1.3259492261
 H          1.2494375727        3.5539124519       -0.6919260815
