  62
        -98.93412416
 C         -2.3661296414       -0.9131680360        0.0695687616
 C         -3.6164599794       -0.8659230773        0.7336997686
 C         -4.6658910889       -0.0102343727        0.1468234854
 C         -4.3748868388        0.6978149406       -0.9598983203
 C         -5.2546591569        1.6608621320       -1.7120951389
 C         -5.4004976170        3.0132935146       -0.9969597691
 C         -5.6560770182        2.9212281417        0.5049548399
 H         -4.8359684142        2.3756502055        0.9751696606
 H         -5.6409554411        3.9378068086        0.9067567781
 C         -6.9850201997        2.2822324513        0.9012158483
 H         -7.0784507367        2.3757787948        1.9862296386
 H         -7.8033599928        2.8464079139        0.4483879498
 C         -7.1524879714        0.8049444074        0.5381090408
 H         -8.0119307659        0.4274252716        1.0998741694
 H         -7.3953190989        0.6827009975       -0.5141075892
 C         -5.9668532512       -0.0798237501        0.9098861132
 H         -6.2838784075       -1.1284957073        0.8549399239
 H         -5.7103697111        0.0861574772        1.9624708578
 H         -4.4740457535        3.5740294769       -1.1431475324
 H         -6.2100693076        3.5689725067       -1.4732349271
 H         -6.2270181897        1.2136709671       -1.8961712861
 H         -4.7773680179        1.8296667174       -2.6799725692
 O         -3.1459028344        0.6499016589       -1.5463734043
 C         -2.1149208233       -0.1408114389       -1.0650073357
 O         -1.0668697397       -0.0582901149       -1.7311169828
 O         -3.8552138162       -1.5131132139        1.7890558393
 C         -1.2878213010       -1.7952651377        0.6734656666
 C          0.0034224438       -1.0293668568        0.8036981385
 C          0.1149433193       -0.0558965161        1.7923283647
 C          1.2780859350        0.6760821818        1.9360065913
 C          2.3539313539        0.4571184065        1.0935156987
 C          2.2525117052       -0.5091332687        0.1024997671
 C          1.0862509009       -1.2516223170       -0.0315987487
 H          1.0132008525       -1.9868095234       -0.8181035341
 N          3.3321589513       -0.7197196695       -0.7699242788
 S          4.8689006144       -0.9097442274       -0.1331274137
 O          5.6006426654       -1.6682140567       -1.1245023215
 O          4.8245834529       -1.4707622611        1.1976870966
 C          5.5210131213        0.7461064391       -0.0753442925
 C          5.5095635485        1.4910333436       -1.2382459039
 C          6.0253419023        2.7768713724       -1.2141859346
 C          6.5433540447        3.2923468294       -0.0352689230
 C          6.5497636094        2.5309390048        1.1232753279
 C          6.0346151694        1.2440106615        1.1059742885
 H          6.0139259366        0.6175127382        1.9835226791
 H          6.9525520493        2.9337709097        2.0386892536
 H          6.9441214665        4.2936227677       -0.0198150027
 H          6.0211157296        3.3721976850       -2.1130962402
 H          5.0998367720        1.0542483656       -2.1337825929
 H          3.1450576898       -1.3882041913       -1.5023491314
 H          3.2631654509        1.0269448725        1.1955839289
 H          1.3485446322        1.4271047934        2.7082374579
 H         -0.7279941955        0.1222156383        2.4462109956
 H         -1.6552582185       -2.0133363149        1.6898744755
 C         -1.1153963880       -3.1403907646       -0.0165702581
 C         -2.3001833768       -3.8691452727       -0.5743793816
 C         -1.2534659230       -3.3244594314       -1.4970918246
 H         -0.5914007747       -4.0237832894       -1.9876319582
 H         -1.4903607030       -2.4578511980       -2.0940478870
 H         -2.3609978829       -4.9379423682       -0.4349927892
 H         -3.2558493547       -3.3671814071       -0.5341490852
 H         -0.3645520042       -3.7496310237        0.4789529124
