  62
        -98.94080729
 C         -2.3310521030       -1.0512763863        0.0217747473
 C         -2.1216887888        0.2051838038       -0.5972501566
 C         -2.8383634041        1.3404842223       -0.0007392915
 C         -3.5956873518        1.1621262729        1.0956923131
 C         -4.3580519434        2.2285106311        1.8339831601
 C         -5.7337190904        2.5450591340        1.2309401085
 C         -5.7048497674        3.3208931660       -0.0865601382
 H         -6.7236867827        3.6629561552       -0.2786104962
 H         -5.0801398525        4.2071267762        0.0292309340
 C         -5.2236029336        2.5028521330       -1.2929905184
 H         -5.2736347880        1.4380620700       -1.0542559653
 H         -5.8931287751        2.6733719796       -2.1389564424
 C         -3.8076220741        2.8378906299       -1.7614921081
 H         -3.7760773815        3.8663552880       -2.1278685389
 H         -3.5558756817        2.1753661002       -2.5933701469
 C         -2.7307424266        2.6719883038       -0.6813690269
 H         -1.7494045726        2.7220785666       -1.1598107170
 H         -2.8014758864        3.4777958417        0.0490142472
 H         -6.2767169461        1.6076039039        1.0906566423
 H         -6.2811214123        3.1395222068        1.9659717684
 H         -4.5044076801        1.8565789417        2.8504232658
 H         -3.7602116486        3.1393228502        1.8814131136
 O         -3.7412296004       -0.0527493659        1.6876228674
 C         -3.1340599074       -1.1784792261        1.1606400722
 O         -3.3818283560       -2.2285485014        1.7870840852
 H          0.4034337899       -0.7510648213       -1.0929721787
 C          0.6882789616       -1.5296333951       -0.4003503402
 C         -0.2668335190       -2.4417514798        0.0254133859
 C          0.1110315960       -3.4195103698        0.9378836905
 C          1.4113567410       -3.4801532339        1.4085733210
 C          2.3597586586       -2.5667415266        0.9835528108
 C          1.9876603904       -1.5798467924        0.0809697073
 N          2.9437754840       -0.6267351400       -0.3491945142
 S          3.4432077601        0.4845909176        0.8242001413
 O          3.7973841203       -0.2323240988        2.0222844666
 O          2.4531504541        1.5320203381        0.9735132491
 C          4.9102800867        1.1396881078        0.0536258191
 C          6.0672077607        0.3859014895        0.0980971012
 C          7.2063400696        0.8700072087       -0.5244141380
 C          7.1692859887        2.0923846740       -1.1790299961
 C          6.0005357527        2.8374251780       -1.2151098708
 C          4.8572492249        2.3578309369       -0.5949228622
 H          3.9285443260        2.9059651947       -0.5916965408
 H          5.9744304297        3.7881004472       -1.7231354091
 H          8.0573288052        2.4681899807       -1.6622194679
 H          8.1176327987        0.2946713143       -0.4970849540
 H          6.0510396031       -0.5538087792        0.6245646876
 H          2.5796156404       -0.0888014785       -1.1268252665
 H          3.3685870609       -2.5913221361        1.3603568284
 H          1.6887715243       -4.2456207412        2.1175152510
 H         -0.6289966041       -4.1222190564        1.2932891072
 C         -1.6922977242       -2.3449829036       -0.4643704564
 H         -2.2635177823       -3.1531273376        0.0117402184
 C         -1.7737380111       -2.5225525851       -1.9680689810
 C         -1.6408908830       -3.8992000004       -2.5432844551
 C         -2.9683756300       -3.2037701063       -2.5613405326
 H         -3.3516046891       -2.8423107439       -3.5037595385
 H         -3.7349788390       -3.5490155121       -1.8825959714
 H         -1.1100147643       -4.0182254411       -3.4751577707
 H         -1.5077693477       -4.7183460559       -1.8528908612
 H         -1.3456059704       -1.6993270771       -2.5240087645
 O         -1.3794626946        0.4008923232       -1.5976445790
