  62
        -98.93844316
 C         -2.6071399312       -0.3420839785       -0.0937330721
 C         -2.2752683832       -1.3859295794       -0.9857489499
 C         -1.6131472833       -2.5651770514       -0.4044239795
 C         -1.3501157729       -2.5789925909        0.9142574247
 C         -0.6141647783       -3.6372287429        1.6890667071
 C          0.8833953800       -3.2932752372        1.7794601120
 C          1.7325085405       -3.8381996658        0.6328751427
 H          2.7444340759       -3.4498926130        0.7704116584
 H          1.7829356597       -4.9272335078        0.7028822785
 C          1.2364831992       -3.4494582210       -0.7623068522
 H          2.0763725922       -3.5285537026       -1.4561674214
 H          0.9198970095       -2.4039105400       -0.7457069748
 C          0.0945436512       -4.3452126124       -1.2658013221
 H          0.0212131584       -5.2210884662       -0.6212802783
 H          0.3393135743       -4.7145658949       -2.2639746129
 C         -1.2805892868       -3.6695451438       -1.3715630266
 H         -1.3844464183       -3.2098970594       -2.3596875282
 H         -2.0594609878       -4.4364780845       -1.3016201189
 H          0.9791174674       -2.2039992287        1.8100121301
 H          1.2799183984       -3.6869882346        2.7178914076
 H         -1.0350291443       -3.6338887713        2.6967000533
 H         -0.7680987129       -4.6177842042        1.2472898586
 O         -1.6955864866       -1.5556720792        1.7422268411
 C         -2.2866957329       -0.4025442620        1.2629558097
 O         -2.4925607989        0.4704301029        2.1287432031
 O         -2.5043116425       -1.3254489995       -2.2266314029
 C         -3.1744014804        0.9535050918       -0.6533442194
 C         -2.1269349138        2.0186182149       -0.4375042794
 C         -2.3468433987        3.2231545869        0.2157361470
 C         -1.2895384682        4.0757384933        0.4906823171
 C          0.0054690397        3.7421293404        0.1361844224
 C          0.2261043501        2.5566986916       -0.5488465418
 C         -0.8336325352        1.7219412571       -0.8501426497
 H         -0.6455731593        0.7883596762       -1.3668689295
 N          1.5624495047        2.1503162513       -0.8466522404
 S          2.1060630786        1.1834055931        0.4425153632
 O          1.3522750680       -0.0502191993        0.4972789504
 O          2.0996721490        1.9979425842        1.6309645251
 C          3.7856395960        0.8499645165       -0.0556560511
 C          4.1197598442       -0.3976480532       -0.5447787236
 C          5.4223555479       -0.6276089819       -0.9600018740
 C          6.3602756198        0.3906580130       -0.8843235118
 C          6.0083463147        1.6390850038       -0.3922769199
 C          4.7087946500        1.8746843512        0.0263992131
 H          4.3890928408        2.8242387778        0.4218832856
 H          6.7410032536        2.4277294274       -0.3343113766
 H          7.3724815893        0.2093699718       -1.2096110278
 H          5.6981445393       -1.5977556049       -1.3409880949
 H          3.3571514676       -1.1595571316       -0.5815481327
 H          1.5738928654        1.5590711632       -1.6704332905
 H          0.8422395118        4.3689235241        0.3966123897
 H         -1.4755434288        5.0006027744        1.0153932828
 H         -3.3424425960        3.4825622144        0.5373638794
 H         -3.2888821400        0.7842325329       -1.7341010869
 C         -4.5242845925        1.2843489723       -0.0590350369
 C         -5.4810727263        2.1561322180       -0.8151084015
 C         -5.7546714889        0.6898844488       -0.6738400405
 H         -6.5535151645        0.3725263292       -0.0208407762
 H         -5.6208808724        0.0573318767       -1.5391833119
 H         -6.0967541660        2.8474139321       -0.2600621677
 H         -5.1663063253        2.5216976727       -1.7807323680
 H         -4.4942218648        1.3685836134        1.0211961207
