  62
        -98.94204046
 C         -1.9285053560       -0.8562309032        0.5310242332
 C         -1.4606614080        0.2767512788        1.2338292845
 C         -1.9643322815        1.5955233033        0.8085937886
 C         -2.8348917706        1.6531232718       -0.2156956490
 C         -3.4809082749        2.8635171292       -0.8381452139
 C         -2.5277358495        3.6430299173       -1.7539341491
 C         -1.1515716911        3.9179863035       -1.1545673350
 H         -0.6487248651        2.9700457006       -0.9509538939
 H         -0.5560583825        4.4302367994       -1.9159230278
 C         -1.1542688065        4.7897614172        0.1000114338
 H         -1.6620306283        5.7315933049       -0.1206971311
 H         -0.1105352951        5.0205966611        0.3285542657
 C         -1.7849218657        4.1729136751        1.3524629985
 H         -2.8686466344        4.2547842241        1.3356842658
 H         -1.4425769524        4.7595841609        2.2098417325
 C         -1.3753349032        2.7279370716        1.6142363581
 H         -0.2871801455        2.6438345048        1.5060734549
 H         -1.5851689068        2.4836355790        2.6623819422
 H         -3.0059948049        4.5869239282       -2.0239409720
 H         -2.3823755161        3.0625699544       -2.6686431051
 H         -3.8876248137        3.5122641064       -0.0680438174
 H         -4.3154822332        2.4946104358       -1.4391221611
 O         -3.2518426430        0.5339260098       -0.8743713364
 C         -2.7864073396       -0.7292961500       -0.5599329587
 O         -3.2187571994       -1.6317933534       -1.3033405626
 O         -0.6418538950        0.1979727696        2.1912974387
 C         -1.3597548467       -2.2234440544        0.8818140066
 C         -0.4255118903       -2.6009539386       -0.2418425622
 C         -0.6213936130       -3.6701754396       -1.1037704882
 C          0.2309200072       -3.8562933972       -2.1799804965
 C          1.2687618015       -2.9774157057       -2.4286367531
 C          1.4816168208       -1.9106656106       -1.5596282786
 C          0.6584031346       -1.7580833278       -0.4587677922
 H          0.8195568884       -0.9329073021        0.2151493741
 N          2.5227226216       -0.9998272091       -1.7751690639
 S          2.4546121301        0.5883997670       -1.2434367896
 O          1.1010985191        1.0754011470       -1.1292644513
 O          3.3106313677        1.3020933165       -2.1696340560
 C          3.2767571538        0.5202582015        0.3355991287
 C          4.6399221841        0.2896586291        0.3151047972
 C          5.3296626095        0.2131652685        1.5129899740
 C          4.6481256121        0.3679811721        2.7113565166
 C          3.2824443825        0.6011263989        2.7161090032
 C          2.5858273584        0.6791233694        1.5188995362
 H          1.5190820565        0.8468292438        1.5085492544
 H          2.7436055076        0.7189784072        3.6427596359
 H          5.1827999150        0.3073991728        3.6462045075
 H          6.3925298229        0.0327235466        1.5103722014
 H          5.1309915381        0.1880400761       -0.6383160884
 H          2.9947859775       -1.0859990902       -2.6624063378
 H          1.9065100847       -3.1073924757       -3.2897968602
 H          0.0679350821       -4.6865821740       -2.8506577697
 H         -1.4499587441       -4.3414877104       -0.9498278894
 H         -0.7612019420       -2.0682290475        1.7907026436
 C         -2.4390677285       -3.2415926626        1.1692075860
 C         -2.1012938065       -4.4770688346        1.9477508675
 C         -2.9362188759       -3.4018651327        2.5735897112
 H         -3.9884431182       -3.5876179186        2.7282430037
 H         -2.4862611051       -2.7823286478        3.3355018352
 H         -2.5804113379       -5.4050324424        1.6753036419
 H         -1.0824577525       -4.5892608842        2.2861416027
 H         -3.1673473089       -3.3221636560        0.3712334623
