  62
        -98.94476139
 C          1.9804439286        0.4625230693       -0.0956511156
 C          2.9859092301        0.6288069673        0.8942334483
 C          4.1378238798       -0.2773270832        0.8188937043
 C          4.1737701727       -1.2112859350       -0.1485144626
 C          5.3058512534       -2.1693577551       -0.3767716346
 C          6.3346672037       -1.5910645064       -1.3585416364
 C          6.7737557386       -0.1653916690       -1.0245411249
 H          7.5207824493        0.1265758915       -1.7657987998
 H          5.9215496311        0.5072919044       -1.1449690657
 C          7.3577569517        0.0054107294        0.3847943463
 H          7.6482916354       -0.9662470657        0.7859306956
 H          8.2634084289        0.6118502617        0.3173518940
 C          6.4263284332        0.7048083373        1.3765709226
 H          6.0588297987        1.6364471217        0.9391434014
 H          7.0093977709        0.9674017415        2.2632692843
 C          5.2190952982       -0.1146632781        1.8497665560
 H          5.5546325642       -1.0885912964        2.2121813250
 H          4.7588749373        0.4223719314        2.6842758584
 H          7.2057994843       -2.2486344840       -1.3721878824
 H          5.8952943126       -1.5885854864       -2.3587854289
 H          5.7825322795       -2.3928074138        0.5757875513
 H          4.8973685431       -3.0917941210       -0.7931779830
 O          3.1874859394       -1.3556837119       -1.0667755558
 C          2.0722213034       -0.5297349467       -1.0715113690
 O          1.2679365092       -0.7963594793       -1.9879378547
 H         -0.7155439227       -0.6321787175       -0.9782025862
 C         -1.0598441990       -0.2993799146       -0.0105049602
 C         -0.3894001284        0.7311748203        0.6334395439
 C         -0.8332064372        1.1314821192        1.8883907914
 C         -1.9143865852        0.5080529784        2.4872186839
 C         -2.5759074038       -0.5233862690        1.8460210687
 C         -2.1393186410       -0.9297390054        0.5910707560
 N         -2.8103238179       -1.9713882544       -0.0722158540
 S         -4.4812919928       -1.8977642276       -0.1153725966
 O         -5.0204339604       -2.4469174894        1.1045890194
 O         -4.8673507813       -2.5761157994       -1.3329266658
 C         -4.8690019665       -0.1578790956       -0.2108206496
 C         -5.6497264872        0.4262936986        0.7655318072
 C         -5.9097113818        1.7854893404        0.6923559623
 C         -5.3818614124        2.5338640398       -0.3478974390
 C         -4.6019233663        1.9313918356       -1.3231782773
 C         -4.3414436165        0.5726458804       -1.2573109635
 H         -3.7395605429        0.0767043493       -2.0020738588
 H         -4.1913190989        2.5150472899       -2.1313227673
 H         -5.5780519999        3.5930521051       -0.4007119882
 H         -6.5176933305        2.2558300990        1.4482106690
 H         -6.0336488935       -0.1924959242        1.5601760437
 H         -2.4232810049       -2.1888926543       -0.9788402073
 H         -3.4137281659       -1.0280067137        2.2996247855
 H         -2.2449663742        0.8271664815        3.4636948492
 H         -0.3126496345        1.9269433816        2.4011687488
 C          0.7920223695        1.4077809878       -0.0200390848
 H          1.1174979678        2.2199788994        0.6433781752
 C          0.4117615328        2.0065674827       -1.3603407555
 C         -0.4226204104        3.2506721107       -1.3885746526
 C          1.0226478094        3.3081903762       -1.7808038615
 H          1.2726972032        3.4466696905       -2.8220742369
 H          1.7185663528        3.7770821796       -1.1004279593
 H         -0.7089770894        3.6817071783       -0.4415192954
 H         -1.1673573074        3.3519872267       -2.1625772466
 H          0.2429037687        1.2677327436       -2.1325085748
 O          2.9218521204        1.5037237870        1.7981673261
