  62
        -98.93957364
 C         -2.5459386531       -1.3864826887        0.1661080724
 C         -2.7992554713       -0.4549306378       -0.8707461828
 C         -3.9430224426        0.4481480844       -0.6579325597
 C         -4.6630727639        0.3569886109        0.4740204051
 C         -5.8163421867        1.2462686985        0.8361119132
 C         -5.3479944084        2.4713692027        1.6335816799
 C         -4.1660776285        3.2053362492        1.0003088610
 H         -3.9440462204        4.0692700018        1.6303411673
 H         -3.2879210551        2.5557024730        1.0253714266
 C         -4.4087916325        3.6733917151       -0.4414173571
 H         -5.4785132011        3.6832481699       -0.6531945485
 H         -4.0490186854        4.6995295687       -0.5422920980
 C         -3.6903068258        2.8435491590       -1.5070838760
 H         -3.7484432034        3.3840602233       -2.4557772963
 H         -2.6319648706        2.7528901220       -1.2485386440
 C         -4.2509024278        1.4361326111       -1.7484206627
 H         -5.3273476742        1.4944262329       -1.9218183481
 H         -3.7782557236        1.0417504598       -2.6529995053
 H         -5.0510952126        2.1419885798        2.6318627154
 H         -6.1905895292        3.1571503167        1.7382097055
 H         -6.3228408443        1.5633554496       -0.0734611290
 H         -6.5133180680        0.6708710738        1.4476331013
 O         -4.3867584725       -0.5435219598        1.4506957230
 C         -3.3318821311       -1.4288300356        1.3227292840
 O         -3.1975764007       -2.2044661783        2.2896403035
 H         -0.2016700317       -0.1800097307       -0.7717700079
 C          0.3780574824       -0.6820542457       -0.0106357873
 C         -0.1130519232       -1.8504333661        0.5561747088
 C          0.6532343095       -2.4937175557        1.5205272179
 C          1.8806978393       -1.9805969872        1.9027364113
 C          2.3695413672       -0.8209511251        1.3281981280
 C          1.6104382317       -0.1700133726        0.3646627763
 N          2.1149290629        1.0043220847       -0.2375629613
 S          3.4883817110        0.7684203404       -1.1871445521
 O          3.5147136007        1.8781449300       -2.1142867178
 O          3.5000090926       -0.5556403504       -1.7666822999
 C          4.8348569654        0.9390729311       -0.0353762500
 C          5.6895899681       -0.1230441844        0.1854027632
 C          6.7337619440        0.0335413975        1.0837353969
 C          6.9036183559        1.2427187256        1.7406835535
 C          6.0374166260        2.3004659312        1.5058610166
 C          4.9921911555        2.1510277874        0.6084051813
 H          4.2996811571        2.9474486922        0.3923787112
 H          6.1731837768        3.2391335072        2.0185086680
 H          7.7162177406        1.3617712765        2.4398400696
 H          7.4083396418       -0.7871532632        1.2674725910
 H          5.5143699640       -1.0452259625       -0.3450230979
 H          1.4168962539        1.4818935679       -0.7920806223
 H          3.3250657551       -0.4168603757        1.6202915697
 H          2.4639199408       -2.4898895458        2.6544570799
 H          0.2759423489       -3.3980214344        1.9754558760
 C         -1.4327087540       -2.4208530501        0.1058406614
 H         -1.7247198753       -3.1933278767        0.8343580485
 C         -1.3404438124       -3.1002044501       -1.2562823460
 C         -0.1870321436       -2.9447313184       -2.1977537967
 C         -0.3822246401       -4.2355547185       -1.4640646630
 H         -0.7153612846       -5.1024434502       -2.0142282020
 H          0.3046687399       -4.4569946103       -0.6610213155
 H         -0.4091576139       -2.9065174451       -3.2537536652
 H          0.6414076283       -2.3135152599       -1.9133964670
 H         -2.3173750616       -3.2028790332       -1.7185504871
 O         -2.1202595469       -0.3613057080       -1.9274596819
