  62
        -98.94761728
 C          1.1926262892        1.1933264407        0.4330103397
 C          1.5900457294        0.4634250205       -0.7129841402
 C          2.3231223003       -0.7855643189       -0.4507191798
 C          2.4694413208       -1.2109191283        0.8168384403
 C          3.2111760118       -2.4499666576        1.2254591706
 C          4.6810706916       -2.1375013865        1.5399753801
 C          5.3779214108       -1.2989190565        0.4680674496
 H          4.9216635002       -0.3065909868        0.4403733193
 H          6.4147649708       -1.1659610957        0.7845940093
 C          5.3478979409       -1.9114145571       -0.9392949401
 H          5.1246141816       -2.9768646272       -0.8738811897
 H          6.3413710107       -1.8150777466       -1.3821660404
 C          4.3645889802       -1.2445825381       -1.9032539302
 H          4.5204593595       -0.1629934780       -1.8948441106
 H          4.5868590202       -1.5995536883       -2.9129383701
 C          2.8790564804       -1.5222167190       -1.6380273897
 H          2.3147517000       -1.1637029997       -2.5042435797
 H          2.7258834912       -2.5991292490       -1.5399225192
 H          5.2141593923       -3.0808747361        1.6713917604
 H          4.7236426715       -1.5891986561        2.4840773099
 H          2.7346308323       -2.8558269576        2.1196595709
 H          3.1479669721       -3.1867524580        0.4270942109
 O          1.9911986607       -0.5259281782        1.8887566401
 C          1.3855406698        0.7102849614        1.7281439998
 O          1.0668437897        1.2707069016        2.7968232897
 H         -1.5144088906        1.1387404693        1.2832647104
 C         -1.7760776611        1.5555884487        0.3208052903
 C         -0.8493794718        2.3363031791       -0.3613740703
 C         -1.2090431125        2.8821610283       -1.5859215504
 C         -2.4646101824        2.6390461573       -2.1157655800
 C         -3.3790629218        1.8520117169       -1.4411731795
 C         -3.0323158711        1.3074857077       -0.2086313793
 N         -3.9574869304        0.5329882873        0.5130488112
 S         -3.5024756193       -0.9031290521        1.2341158417
 O         -4.7554479887       -1.5282638528        1.5983548022
 O         -2.5756049391       -0.6584137410        2.3086630513
 C         -2.7263680890       -1.8404857421       -0.0672965782
 C         -1.3610803591       -1.7580092712       -0.2477001785
 C         -0.7838480389       -2.4479890613       -1.3017865084
 C         -1.5763549586       -3.2028966721       -2.1522174079
 C         -2.9470753085       -3.2791206430       -1.9554407175
 C         -3.5303043387       -2.5883035229       -0.9063847577
 H         -4.5893566186       -2.6266308436       -0.7089576674
 H         -3.5597174882       -3.8711242636       -2.6159666371
 H         -1.1188710184       -3.7353965722       -2.9708963078
 H          0.2807277111       -2.3787831806       -1.4527929287
 H         -0.7687562493       -1.1646718706        0.4322644011
 H         -4.8509298004        0.4250302566        0.0542138715
 H         -4.3574383417        1.6641988261       -1.8563747891
 H         -2.7323417030        3.0656176767       -3.0703201401
 H         -0.5060476330        3.4916160486       -2.1283955508
 C          0.5002973882        2.5380142602        0.2848000093
 H          0.3270297582        2.8993149505        1.3089591892
 C          1.3905015474        3.5270908105       -0.4369302713
 C          1.1688232165        4.9975173704       -0.2550774018
 C          2.3662919570        4.3383303315        0.3590837081
 H          3.3396717368        4.5361849120       -0.0643191322
 H          2.3789348374        4.1918117819        1.4298069082
 H          0.3677291364        5.3035474402        0.4007840682
 H          1.3220482358        5.6519287602       -1.0996129921
 H          1.7143780974        3.1737660303       -1.4084229413
 O          1.3602627188        0.8325302899       -1.8928841102
