  62
        -98.94106651
 C         -1.7223235190       -0.0745161201        0.9412034106
 C         -2.9215738690       -0.8202250103        0.8310102310
 C         -4.1345621290       -0.0419827906        0.5422659804
 C         -4.0648543392        1.2928386593        0.3981871894
 C         -5.2170417992        2.2180187090        0.1149114787
 C         -5.5852480492        2.3206253979       -1.3716557614
 C         -6.2810658290        1.0910581674       -1.9570145105
 H         -7.1315156590        0.8228748677       -1.3293714504
 H         -6.6755731890        1.3807285166       -2.9330431408
 C         -5.3665873589       -0.1288049127       -2.1370089896
 H         -4.3219682189        0.1887030775       -2.0964256998
 H         -5.5297771388       -0.5637579034       -3.1256600493
 C         -5.5852291488       -1.2410676219       -1.1114569388
 H         -4.8610957687       -2.0357435320       -1.3079443582
 H         -6.5864543188       -1.6606126421       -1.2329362886
 C         -5.4156509389       -0.7959068809        0.3468045909
 H         -6.2657413790       -0.1884746107        0.6562624404
 H         -5.3756618489       -1.6891774304        0.9749139115
 H         -6.2544185092        3.1769764477       -1.4827854920
 H         -4.6778757392        2.5314792076       -1.9422346315
 H         -6.0902628992        1.9018183793        0.6862372189
 H         -4.9132782094        3.2075625793        0.4630577480
 O         -2.8957094192        1.9758414995        0.5163617990
 C         -1.7079292692        1.3148398798        0.7734389296
 O         -0.7136556993        2.0653970600        0.8395599191
 O         -3.0072286888       -2.0704073902        0.9616384319
 C         -0.3667439290       -0.6959997397        1.2328667911
 C          0.2777316511       -1.2646600406       -0.0089082885
 C         -0.3468885487       -2.2423661712       -0.7756497778
 C          0.2845142514       -2.7636472919       -1.8898101974
 C          1.5549105414       -2.3434915420       -2.2436575576
 C          2.1895941112       -1.3711895214       -1.4805357183
 C          1.5403526611       -0.8277970407       -0.3811430187
 H          2.0302902310       -0.0579115602        0.1953171307
 N          3.4756602212       -0.9193992215       -1.8084722786
 S          4.5801141911       -0.6038710305       -0.5901894987
 O          5.8711977411       -0.7277212109       -1.2324976486
 O          4.3578728611       -1.4476775997        0.5601891019
 C          4.3087209909        1.1037080797       -0.1695195800
 C          4.1240032608        1.4616594507        1.1508544298
 C          3.9372990806        2.7985613309        1.4641009688
 C          3.9405054006        3.7493732301        0.4556768881
 C          4.1304292907        3.3740662392       -0.8656989816
 C          4.3181381509        2.0391924990       -1.1848851906
 H          4.4714530209        1.7099130883       -2.1990557204
 H          4.1305565307        4.1178452387       -1.6461852221
 H          3.7919424805        4.7887916003        0.7023088074
 H          3.7862779106        3.0917613316        2.4907400186
 H          4.1231030808        0.6891711112        1.9042396503
 H          3.9044958013       -1.3874410420       -2.5935282082
 H          2.0527664814       -2.7646160726       -3.1041026273
 H         -0.2117037585       -3.5176646024       -2.4822567169
 H         -1.3277864487       -2.5884270211       -0.4887974876
 H          0.2684369509        0.1303720106        1.5802606805
 C         -0.4016024689       -1.7568374990        2.3183109818
 C          0.8924349211       -2.1969465884        2.9321949522
 C         -0.0762112091       -1.3769287079        3.7295923716
 H         -0.6194453291       -1.8555726174        4.5306244919
 H          0.1699935008       -0.3432927077        3.9254696409
 H          1.0114983212       -3.2397250082        3.1845168030
 H          1.8018485310       -1.7308923785        2.5808156719
 H         -1.1656976789       -2.5065064091        2.1620602223
