  62
        -98.94533218
 C         -1.5608321724       -1.0106356484        0.3039203073
 C         -2.8826654596       -1.1593340553        0.7928275884
 C         -3.9575521935       -0.7909477417       -0.1341118789
 C         -3.6515362292       -0.3468651654       -1.3666574961
 C         -4.6354532879        0.0557447982       -2.4315158425
 C         -5.1355443721        1.5010847785       -2.3025667808
 C         -6.1094868683        1.7521797707       -1.1505618031
 H         -6.5442916102        2.7410693084       -1.3091399395
 H         -6.9226416476        1.0273022430       -1.1996144515
 C         -5.4664591843        1.7142172707        0.2429146487
 H         -4.3824780146        1.8142399564        0.1469217497
 H         -5.8144803740        2.5688306797        0.8276228378
 C         -5.7791136188        0.4547945456        1.0512109837
 H         -6.8489859961        0.4147916145        1.2673630386
 H         -5.2454565682        0.5177869091        2.0029356963
 C         -5.3698436003       -0.8546382876        0.3641982637
 H         -6.0527886700       -1.0793629457       -0.4546084916
 H         -5.4267763107       -1.6601114718        1.1003604565
 H         -5.6391486655        1.7564845009       -3.2378578455
 H         -4.2710133702        2.1616040454       -2.2003698466
 H         -4.1172428396       -0.0446449431       -3.3876092290
 H         -5.4855360004       -0.6270042554       -2.4230723166
 O         -2.3703031302       -0.2288457140       -1.8040296550
 C         -1.2941776340       -0.5327407407       -0.9796087089
 O         -0.1835899716       -0.3533774856       -1.5133436132
 O         -3.1506803686       -1.5824763099        1.9490572299
 C         -0.4094282446       -1.3340012793        1.2423497056
 C          0.2455784619       -0.0367192194        1.6499785786
 C         -0.4595593813        0.8449691529        2.4666517742
 C          0.0938329464        2.0531939488        2.8422217530
 C          1.3547359296        2.4154464989        2.3979064773
 C          2.0630557656        1.5477777874        1.5776161118
 C          1.5125152310        0.3234835564        1.2220007416
 H          2.0780166880       -0.3426049808        0.5959128931
 N          3.3523432274        1.8694037301        1.1148572331
 S          3.6316054190        1.7994867057       -0.5443331025
 O          4.8271949433        2.5970058965       -0.7323953754
 O          2.4696314784        2.2243154831       -1.2888404653
 C          4.0297086433        0.0957250608       -0.8665402787
 C          5.1884043634       -0.4087020134       -0.3086910763
 C          5.5209712132       -1.7333760247       -0.5404444071
 C          4.6951269047       -2.5243603667       -1.3254906615
 C          3.5383348723       -1.9998107752       -1.8814302764
 C          3.1964349514       -0.6753646295       -1.6527762056
 H          2.2859347310       -0.2438581024       -2.0403547840
 H          2.8913445768       -2.6147633542       -2.4872452309
 H          4.9516503167       -3.5567625836       -1.5048941466
 H          6.4185317593       -2.1458030308       -0.1086301551
 H          5.8034511741        0.2436079692        0.2884550192
 H          3.7148099379        2.7372618907        1.4854314438
 H          1.7851534500        3.3641731410        2.6822469862
 H         -0.4615691821        2.7246663244        3.4799291662
 H         -1.4496155575        0.5668885462        2.8011048270
 H         -0.8803841636       -1.7685327959        2.1357036292
 C          0.5473616326       -2.3448186745        0.6487779217
 C          1.5316992878       -3.0432258374        1.5374045639
 C          0.3729318771       -3.7991958687        0.9620539249
 H          0.5618856510       -4.5193546469        0.1804549244
 H         -0.4365297227       -4.0748242564        1.6221366420
 H          2.5201682024       -3.2412813682        1.1514739435
 H          1.5082559098       -2.8042373891        2.5897448164
 H          0.8659522563       -2.0894371259       -0.3542263878
