  62
        -98.94364839
 C         -2.6342501772        0.1475697661        0.2016599509
 C         -2.1583478423        0.9301062774       -0.8797563390
 C         -1.7298582601        2.2981481754       -0.5431738162
 C         -1.7785228465        2.7180114627        0.7326692181
 C         -1.3344410054        4.0684842465        1.2149848073
 C          0.1374324004        4.0592770384        1.6475633842
 C          1.0864277707        3.4410336576        0.6199768181
 H          2.1006316808        3.5466978819        1.0131633859
 H          0.8904746380        2.3684286096        0.5438131369
 C          1.0138746250        4.0727230999       -0.7768995355
 H          2.0314791436        4.2136112388       -1.1475565483
 H          0.5494779746        5.0584087637       -0.7150265800
 C          0.2782568100        3.2275996840       -1.8188950320
 H          0.4919631980        3.6451671698       -2.8071634647
 H          0.6697814260        2.2068210887       -1.8043084640
 C         -1.2476304146        3.1653596982       -1.6719338385
 H         -1.6508014400        4.1766743734       -1.5781135159
 H         -1.6493132708        2.7171773892       -2.5856787158
 H          0.4409238420        5.0882705359        1.8517017770
 H          0.2226793068        3.4865182292        2.5739106063
 H         -1.9525914010        4.3440168101        2.0715336345
 H         -1.4854294900        4.7972188510        0.4206746380
 O         -2.2266351798        1.9360146968        1.7482560441
 C         -2.6427104627        0.6392610851        1.5097645181
 O         -3.0179600937        0.0285855059        2.5329096278
 O         -2.0939633921        0.5369441957       -2.0752010944
 C         -3.0733448241       -1.3024155539        0.0729085937
 C         -1.8966083308       -2.2270486993        0.2900321770
 C         -2.0379175513       -3.4104709322        1.0062716871
 C         -0.9459860200       -4.2269597505        1.2393041132
 C          0.3124647604       -3.8640040153        0.7935575902
 C          0.4617530259       -2.6867225163        0.0704308057
 C         -0.6444654468       -1.8964312435       -0.2029563491
 H         -0.5072997655       -0.9946777398       -0.7795623348
 N          1.7192363158       -2.2603435865       -0.3882403231
 S          2.0181907937       -0.5949720631       -0.2888901440
 O          1.4045060609       -0.0573390645        0.9037601742
 O          1.6538326553        0.0142206475       -1.5418716057
 C          3.7945038624       -0.5869062941       -0.1276590528
 C          4.3597776349       -0.4817067949        1.1288365931
 C          5.7406036005       -0.5120441563        1.2474516212
 C          6.5277623366       -0.6498332612        0.1140433667
 C          5.9458382679       -0.7525219064       -1.1409269116
 C          4.5660822324       -0.7211793727       -1.2666690799
 H          4.0681175428       -0.7870503653       -2.2199962336
 H          6.5608335769       -0.8559330984       -2.0202122154
 H          7.6017430123       -0.6739105484        0.2093494256
 H          6.1953715879       -0.4279488254        2.2213041495
 H          3.7067478546       -0.3678609924        1.9794182452
 H          2.4829461933       -2.8036209592       -0.0085479536
 H          1.1717608455       -4.4817498013        1.0061289881
 H         -1.0700776931       -5.1420719488        1.7980683076
 H         -3.0071731863       -3.6771967068        1.4000353679
 H         -3.7818436879       -1.4765576579        0.8960611043
 C         -3.7694193768       -1.6346152071       -1.2321078649
 C         -4.7850569892       -2.7354757301       -1.2647481160
 C         -5.2221165616       -1.3079210376       -1.3946949479
 H         -5.5623608441       -0.9511460514       -2.3548240721
 H         -5.7254287900       -0.8495927821       -0.5555672704
 H         -4.8269058135       -3.3675365975       -2.1382715360
 H         -5.0051039531       -3.2465418576       -0.3399749088
 H         -3.1330926317       -1.5083880278       -2.0981311418
