  62
        -98.93910347
 C         -2.4747139325       -1.0303162238        0.3770435421
 C         -2.6868323987        0.1555552845        1.1293273408
 C         -3.9723791664        0.8325513416        0.9327739338
 C         -4.8825649273        0.3003055743        0.0975179842
 C         -6.2535219581        0.8500013096       -0.1890948954
 C         -6.2750492569        1.9476094558       -1.2616020476
 C         -5.7002836403        3.2953676225       -0.8240403043
 H         -5.9760896066        4.0246430774       -1.5882401505
 H         -6.1731985249        3.6057317739        0.1081336016
 C         -4.1741131171        3.3089302561       -0.6582330913
 H         -3.7432623462        2.4429767403       -1.1664585888
 H         -3.7626542755        4.1987542073       -1.1399876491
 C         -3.6932588659        3.3178175183        0.7930557363
 H         -2.6003486925        3.2863699676        0.7924284718
 H         -4.0030021375        4.2469108342        1.2768542021
 C         -4.1991453086        2.1379657494        1.6333992719
 H         -3.6341714292        2.1155402477        2.5686262366
 H         -5.2562210352        2.2666653282        1.8654974636
 H         -5.7333752805        1.5885056634       -2.1395868043
 H         -7.3172838210        2.0983406578       -1.5519547719
 H         -6.8562760676        0.0108237604       -0.5426823267
 H         -6.6942537180        1.2312162470        0.7324707856
 O         -4.6549165798       -0.8503100648       -0.5853297603
 C         -3.4484742729       -1.5306472126       -0.4881266007
 O         -3.3992029610       -2.5465854238       -1.2086576124
 O         -1.8410383875        0.6216910591        1.9401857371
 C         -1.1356249555       -1.7225655631        0.5631367940
 C         -0.1764910790       -1.3909747087       -0.5558474367
 C         -0.3846128034       -1.8438222209       -1.8550139547
 C          0.5264757418       -1.5471908910       -2.8518562869
 C          1.6666879640       -0.8143000969       -2.5728635684
 C          1.8777879872       -0.3478240686       -1.2807939247
 C          0.9529121163       -0.6319614310       -0.2854886903
 H          1.1255405544       -0.2544613169        0.7122686084
 N          3.0119355384        0.4189117919       -0.9699453205
 S          3.7209578670        0.2127847714        0.5493357834
 O          3.7424498036       -1.1901759528        0.8967116203
 O          3.0756821688        1.0947895387        1.4890003675
 C          5.3754438007        0.7907615272        0.2190270148
 C          6.3561199827       -0.1256776976       -0.1111765549
 C          7.6330241829        0.3321188219       -0.3957098049
 C          7.9054109912        1.6911308200       -0.3485959567
 C          6.9111309834        2.5987024383       -0.0144196704
 C          5.6324703754        2.1477378936        0.2724923032
 H          4.8308021470        2.8136143987        0.5468240093
 H          7.1274574282        3.6541128713        0.0248414191
 H          8.8998142368        2.0450849993       -0.5701373752
 H          8.4089898647       -0.3711220002       -0.6517855569
 H          6.1002751848       -1.1729746763       -0.1257709668
 H          3.6998450083        0.4238662534       -1.7106529662
 H          2.3836577137       -0.5975211877       -3.3502611491
 H          0.3533774836       -1.9031286956       -3.8563563164
 H         -1.2714342837       -2.4177606347       -2.0746372153
 H         -0.7189383507       -1.2934031646        1.4853922531
 C         -1.2431874542       -3.2246041305        0.7440872838
 C         -0.0711920776       -3.9625747742        1.3161294395
 C         -1.3205206260       -3.7943717534        2.1268492858
 H         -1.9476917138       -4.6572434996        2.2936097418
 H         -1.3009592930       -3.1013279840        2.9556238152
 H          0.1603388758       -4.9419772217        0.9264599494
 H          0.7987622629       -3.3826166696        1.5896626429
 H         -1.8196302821       -3.7139165200       -0.0298619267
