  62
        -98.93748197
 C         -1.2705730491       -1.1097023405       -0.0828062885
 C         -1.8266574195       -0.1091710803        0.7469028111
 C         -2.8380591299        0.7704022990        0.1341886207
 C         -3.1728571199        0.5911944982       -1.1573075792
 C         -4.1334851603        1.3486955474       -2.0505253194
 C         -5.1609852106        2.3093329073       -1.4571665298
 C         -6.2522919103        1.6428540373       -0.6200856094
 H         -6.8661887106        2.4279135672       -0.1730720198
 H         -6.8930051201        1.0591948267       -1.2859912991
 C         -5.7603126798        0.7082540580        0.4822716410
 H         -6.6383293496        0.3050473079        0.9942375813
 H         -5.2323403895       -0.1376697620        0.0371751914
 C         -4.8640493600        1.3554829389        1.5362050606
 H         -5.3664894003        2.2268940589        1.9605062402
 H         -4.7232553596        0.6267569893        2.3388470910
 C         -3.4683975402        1.7815851992        1.0479655203
 H         -2.8137590502        1.8531016899        1.9213576402
 H         -3.4958589707        2.7617517290        0.5778343698
 H         -4.6640912509        3.0875392678       -0.8853286003
 H         -5.6491918409        2.8020909367       -2.3025267400
 H         -3.5075848006        1.9053894873       -2.7572193098
 H         -4.6548097500        0.5865912169       -2.6386338690
 O         -2.5864270096       -0.3735576619       -1.9271036787
 C         -1.6335536992       -1.2449944513       -1.4209754384
 O         -1.1969231489       -2.0658685515       -2.2494477180
 O         -1.4864597294        0.0514406505        1.9483094910
 C         -0.2329764887       -2.0459713998        0.5004382619
 C          1.1020937312       -1.9061452996       -0.1893805583
 C          2.0165710016       -2.9514921892       -0.2566952778
 C          3.2626283515       -2.7670178890       -0.8310015980
 C          3.6296637309       -1.5375949591       -1.3491014386
 C          2.7212723205       -0.4914464994       -1.2946890691
 C          1.4764181406       -0.6764892797       -0.7135271089
 H          0.7819423203        0.1536831601       -0.6648584393
 N          3.1081955400        0.7853467005       -1.7798575898
 S          4.0260642497        1.6410965014       -0.6631776802
 O          4.1223792891        2.9904344012       -1.1721055509
 O          5.2672652900        0.9388592820       -0.4641217400
 C          3.0425215098        1.6008686117        0.8231713999
 C          3.1605372203        0.5200843622        1.6739148904
 C          2.2952132705        0.4205339424        2.7514139605
 C          1.3283110401        1.3924119621        2.9558296901
 C          1.2271470896        2.4744320516        2.0952995596
 C          2.0855446495        2.5778328814        1.0129617694
 H          2.0346620891        3.3999879811        0.3161738090
 H          0.4707497793        3.2258501514        2.2565187893
 H          0.6385422402        1.2993372322        3.7791360202
 H          2.3678832709       -0.4220245373        3.4201873709
 H          3.9206495606       -0.2188289076        1.4777423107
 H          2.3162720097        1.3568663600       -2.0417193700
 H          4.6025833108       -1.3672233889       -1.7799358088
 H          3.9589054018       -3.5905615187       -0.8723136977
 H          1.7520325620       -3.9152626091        0.1470899327
 H         -0.1003359788       -1.7146857992        1.5424354217
 C         -0.7483330281       -3.4719161100        0.5056758527
 C         -0.4095618577       -4.4038560693        1.6297175531
 C         -1.7976692179       -3.8544840899        1.5051101529
 H         -2.5926003577       -4.5147951304        1.1924706033
 H         -2.1122157182       -3.0952424597        2.2063200626
 H         -0.2517703673       -5.4476995093        1.4032823936
 H          0.2111225322       -4.0246407786        2.4273362729
 H         -0.8366434180       -3.8836911605       -0.4934888971
