  62
        -98.94497823
 C         -2.0557421845        1.3404675325       -0.0269729662
 C         -2.6414475276        0.6695111242       -1.1268571285
 C         -3.8236971520       -0.1445651321       -0.8254017772
 C         -4.2803434492       -0.2151476260        0.4384962981
 C         -5.4863544539       -0.9869693228        0.9010315965
 C         -5.2069008806       -2.4694113317        1.1842297432
 C         -4.9864122098       -3.3381783212       -0.0548400303
 H         -5.8126304343       -3.1924417915       -0.7514012375
 H         -5.0170510823       -4.3788814174        0.2739227351
 C         -3.6536990022       -3.0881728602       -0.7746907729
 H         -3.1814747680       -4.0450828391       -1.0094474186
 H         -2.9743568340       -2.5532049724       -0.1062195813
 C         -3.7780476447       -2.3099610301       -2.0849023393
 H         -4.3496524983       -2.8978724804       -2.8063809720
 H         -2.7746207747       -2.1621081363       -2.4928072527
 C         -4.4399315290       -0.9329573384       -1.9417103409
 H         -5.5117909353       -1.0461603189       -1.7818403321
 H         -4.2801394819       -0.3781079539       -2.8694544370
 H         -6.0666623300       -2.8649047763        1.7298875285
 H         -4.3358887921       -2.5418506991        1.8399595573
 H         -6.2835072637       -0.9002814799        0.1622243124
 H         -5.8187572360       -0.5167271672        1.8289544912
 O         -3.6858680943        0.4407379843        1.4697398286
 C         -2.5478486409        1.2113669592        1.2721609585
 O         -2.0883732524        1.7203399909        2.3110713248
 O         -2.1940868578        0.7438630105       -2.3035472933
 C         -0.8171046890        2.1869473843       -0.2615773938
 C          0.3559183663        1.5775862181        0.4665748990
 C          1.1757151025        2.2820351143        1.3371393935
 C          2.2225392582        1.6455150152        1.9832103939
 C          2.4820253061        0.3052735134        1.7676401910
 C          1.6814518550       -0.4036760588        0.8795482247
 C          0.6341656731        0.2351094831        0.2349408626
 H          0.0084484102       -0.3195438468       -0.4535114749
 N          1.9491888318       -1.7605143827        0.6343617570
 S          3.5431741882       -2.2229174600        0.4207325848
 O          3.4863312799       -3.3937927517       -0.4263178564
 O          4.1713145155       -2.4081303920        1.7052839728
 C          4.3207859787       -0.8656027345       -0.4380755010
 C          3.8015245666       -0.4818187947       -1.6587019977
 C          4.3772431587        0.5872815353       -2.3254249480
 C          5.4577272767        1.2504748671       -1.7636814338
 C          5.9714196820        0.8490509731       -0.5405821360
 C          5.3978121404       -0.2181581156        0.1320015885
 H          5.7624418031       -0.5613229989        1.0865056570
 H          6.8128675742        1.3650925039       -0.1072224384
 H          5.9009998423        2.0845671702       -2.2842530948
 H          3.9782646492        0.9003612269       -3.2770071193
 H          2.9629817183       -1.0194474460       -2.0720925467
 H          1.3454817984       -2.1827372305       -0.0551202825
 H          3.2808053949       -0.2070725728        2.2788480567
 H          2.8431273868        2.2016454545        2.6688712024
 H          0.9885884272        3.3266193826        1.5216963278
 H         -0.6194864378        2.1156344228       -1.3415233997
 C         -1.0749972174        3.6358406372        0.0901832237
 C         -0.2848991313        4.7210877037       -0.5762222429
 C         -1.7278535135        4.5216155982       -0.9269401645
 H         -2.4491376567        5.2501762069       -0.5883731402
 H         -1.9679510933        4.0847326423       -1.8853831619
 H         -0.0152459477        5.5919576437        0.0016796972
 H          0.4578761247        4.4243591845       -1.3008914871
 H         -1.3620777857        3.7701139528        1.1267146502
