  62
        -98.94227976
 C         -1.1986942297       -0.9282664203        0.4356893911
 C         -2.0690745973       -0.7106764599       -0.6562009697
 C         -3.0615118563        0.3686180159       -0.5000555341
 C         -3.0663647849        1.1076962835        0.6248473962
 C         -3.9136609579        2.2949920050        1.0334025532
 C         -5.1983486976        2.6355486300        0.2823939319
 C         -6.3186639336        1.6064859273        0.4291116537
 H         -6.6790756085        1.6302172459        1.4605705921
 H         -7.1442979382        1.9080649236       -0.2190976202
 C         -5.9351227823        0.1643612398        0.1071883414
 H         -6.8238976869       -0.4566885247        0.2475633075
 H         -5.1839484469       -0.1828401720        0.8194339132
 C         -5.4207399115       -0.0742004390       -1.3111662098
 H         -6.1427089160        0.3105704352       -2.0339410606
 H         -5.3456062603       -1.1551312076       -1.4558413358
 C         -4.0409123636        0.5300926324       -1.6267114237
 H         -3.6187586384       -0.0137080570       -2.4770879996
 H         -4.1213133359        1.5750069915       -1.9178686774
 H         -5.5598810862        3.5794357246        0.6997607994
 H         -4.9834733443        2.8185001563       -0.7663783303
 H         -4.1480470028        2.1428020253        2.0919846261
 H         -3.2445227705        3.1621595787        0.9879396183
 O         -2.1718535546        0.8898294944        1.6336804469
 C         -1.2211356145       -0.1115918980        1.5637327877
 O         -0.4642003112       -0.1741672811        2.5550191108
 O         -2.0209048115       -1.3792983917       -1.7219572195
 C         -0.1375834409       -2.0097825921        0.3630688188
 C          0.8485549923       -1.7003343062       -0.7384800537
 C          1.4062638530       -2.6672422561       -1.5654799638
 C          2.3297332340       -2.3094374447       -2.5329769304
 C          2.7377214129       -0.9957557278       -2.6792949228
 C          2.1896459740       -0.0224273328       -1.8518739879
 C          1.2492305595       -0.3816460784       -0.9008255734
 H          0.8087736793        0.3879814906       -0.2860200780
 N          2.5739557101        1.3240072618       -1.9481880532
 S          2.6998208059        2.2313623837       -0.5478434888
 O          1.3926837972        2.6102280715       -0.0712759415
 O          3.5754262232        3.3254348643       -0.9128200847
 C          3.5314691080        1.1588040083        0.6107502224
 C          2.8621631178        0.6074070164        1.6835600475
 C          3.5447678738       -0.2634821274        2.5196424984
 C          4.8739616879       -0.5664538712        2.2723766076
 C          5.5353812903        0.0030433723        1.1943879280
 C          4.8590101689        0.8708629615        0.3541084503
 H          5.3404366036        1.3430872068       -0.4867930108
 H          6.5711095902       -0.2292148701        1.0063250003
 H          5.3964749625       -1.2474366788        2.9254866774
 H          3.0209870313       -0.7006366624        3.3550316261
 H          1.8250042083        0.8484101823        1.8598986922
 H          3.3323919173        1.5083247266       -2.5881683654
 H          3.4634376026       -0.7220278812       -3.4294259776
 H          2.7467641819       -3.0681223167       -3.1774681345
 H          1.1123888083       -3.6984188610       -1.4580814227
 H          0.4095407827       -1.9585175903        1.3169921116
 C         -0.7736547285       -3.3786774891        0.2395181610
 C         -0.1063062475       -4.5790843773        0.8386416489
 C         -1.3464589123       -4.0200108370        1.4666313403
 H         -2.2689923777       -4.5736183237        1.3769140026
 H         -1.2519811081       -3.4794201925        2.3976127939
 H         -0.1794140820       -5.5225574969        0.3190341224
 H          0.8313444057       -4.4269758171        1.3514439182
 H         -1.3177249733       -3.5015815128       -0.6894932762
