  62
        -98.93971906
 C          2.4795206388        1.0380784802       -0.1049611672
 C          3.7127194435        1.0927458232        0.5878588144
 C          4.8567855168        0.4635349598       -0.0843763617
 C          4.6778399329       -0.1080846416       -1.2894463251
 C          5.7412340501       -0.8356360266       -2.0589831062
 C          5.7425233560       -2.3333801700       -1.7222934681
 C          5.7375409054       -2.6296051651       -0.2225497343
 H          4.7910248235       -2.2899824976        0.2047622744
 H          5.7699554503       -3.7150414735       -0.1054579389
 C          6.9009510262       -1.9965876177        0.5536148449
 H          7.6966098180       -1.7142621436       -0.1367195986
 H          7.3132945613       -2.7428384825        1.2360254872
 C          6.5129369387       -0.7842444688        1.4021564457
 H          5.6547862826       -1.0367693148        2.0303221729
 H          7.3486497502       -0.5540850715        2.0684206050
 C          6.1813037932        0.4961273537        0.6251216000
 H          6.1140646620        1.3145769611        1.3478518319
 H          6.9884809873        0.7212103327       -0.0747297185
 H          6.6208676230       -2.7900017449       -2.1820573773
 H          4.8522901062       -2.7880753886       -2.1630317767
 H          5.5396114107       -0.7124139378       -3.1243411749
 H          6.7116290287       -0.3998053143       -1.8296014455
 O          3.4813336895       -0.1297227997       -1.9294964347
 C          2.3494614823        0.4278106388       -1.3525309192
 O          1.3185180233        0.3225701213       -2.0429093785
 H         -1.3352702695        1.3533195753       -0.4030014557
 C         -1.0279954990        0.5439851359        0.2404751634
 C          0.2391122724        0.5484928122        0.7990247273
 C          0.6048352886       -0.5101544431        1.6274309158
 C         -0.2695388628       -1.5500528960        1.8745035294
 C         -1.5276409837       -1.5619060062        1.2971894569
 C         -1.9049552827       -0.5099621847        0.4748937352
 N         -3.1702181586       -0.5232856193       -0.1367571474
 S         -4.4895170695       -1.0431449578        0.7779113936
 O         -4.4728967704       -0.4109179699        2.0784204158
 O         -4.5079043171       -2.4846781645        0.7817852563
 C         -5.8438034552       -0.4241301344       -0.2002655804
 C         -6.4349143179        0.7768393361        0.1434126886
 C         -7.4718317444        1.2611244841       -0.6384935190
 C         -7.8950768194        0.5419543625       -1.7461010348
 C         -7.2914944139       -0.6619266747       -2.0783880499
 C         -6.2551322525       -1.1526404614       -1.3002961722
 H         -5.7625456209       -2.0866036433       -1.5149366354
 H         -7.6250350545       -1.2190325569       -2.9389902426
 H         -8.7025698285        0.9207423947       -2.3525842476
 H         -7.9451809110        2.1950018650       -0.3813067668
 H         -6.0793358051        1.2975029208        1.0181035651
 H         -3.3707825583        0.3401849406       -0.6219943431
 H         -2.2195620063       -2.3687713448        1.4776424398
 H          0.0286817956       -2.3629123919        2.5200651224
 H          1.5900718569       -0.5051931239        2.0742095910
 C          1.2478991151        1.6420859817        0.5471502749
 H          1.5903471948        2.0192239847        1.5217575066
 C          0.7182412781        2.8038315415       -0.2651415901
 C         -0.1349114973        3.8468559369        0.3913629841
 C          1.2696103775        4.1742980937       -0.0155189769
 H          1.4237357755        4.8290410620       -0.8600221915
 H          2.0176380704        4.2758617038        0.7570361129
 H         -0.3442672004        3.7290898185        1.4439040356
 H         -0.9452316518        4.2825342958       -0.1734059377
 H          0.5011338482        2.5339210934       -1.2923480878
 O          3.8489648315        1.6391031874        1.7159085170
