  62
        -98.94317233
 C         -1.2326899660       -1.5830356591       -0.3455280350
 C         -0.0294704143       -1.4782268978       -1.0786528391
 C          1.1605832982       -2.1412974673       -0.5149638332
 C          1.0483797817       -2.7683753330        0.6703098526
 C          2.1162348170       -3.5058921356        1.4347863703
 C          3.0840309428       -2.5640743649        2.1698126444
 C          3.5151339035       -1.3375696537        1.3698442751
 H          4.0842914998       -0.6876697191        2.0417748990
 H          2.6211676947       -0.7816595512        1.0774072437
 C          4.3868395589       -1.6278637628        0.1496049746
 H          5.3029636587       -2.1223314987        0.4817658421
 H          4.6704654721       -0.6660994098       -0.2857142125
 C          3.7507351172       -2.4820266063       -0.9482477714
 H          3.7190143849       -3.5277570476       -0.6547095172
 H          4.4051520764       -2.4244602063       -1.8229596854
 C          2.3717143459       -2.0191792576       -1.4075002914
 H          2.1157101291       -2.5545273498       -2.3300704506
 H          2.4219656160       -0.9618490843       -1.6906313446
 H          3.9629924803       -3.1357170148        2.4738889498
 H          2.5837118593       -2.2034871923        3.0720970763
 H          2.6542632752       -4.1722959591        0.7664791963
 H          1.6021338299       -4.1216105652        2.1762614829
 O         -0.1180480063       -2.7886846392        1.3756314368
 C         -1.2700248425       -2.1811535863        0.9126185068
 O         -2.2403566096       -2.2578099985        1.6920918890
 O          0.0535705690       -0.8543415807       -2.1726195643
 C         -2.4791209482       -0.9016568189       -0.8864324434
 C         -2.7627321348        0.3062989244       -0.0284388414
 C         -3.9785698750        0.5674732677        0.5875741736
 C         -4.1178851301        1.6738407043        1.4094585185
 C         -3.0539619212        2.5250045992        1.6457705624
 C         -1.8365236120        2.2775041895        1.0203646017
 C         -1.7119868478        1.1934688389        0.1702406505
 H         -0.7666695726        1.0040936775       -0.3160158093
 N         -0.7267260087        3.1139802309        1.2142193620
 S          0.8139394304        2.4599129811        1.1947535363
 O          0.8369365991        1.1033815742        1.6920503036
 O          1.6200068071        3.4103462082        1.9352959238
 C          1.3263610889        2.5059167883       -0.5108283312
 C          0.6283985393        3.2413239603       -1.4466567585
 C          1.0892308654        3.2672136574       -2.7537829021
 C          2.2350808889        2.5697758634       -3.1008729410
 C          2.9298457275        1.8432469603       -2.1470894672
 C          2.4729678183        1.8110868900       -0.8397515877
 H          2.9775376726        1.2526536689       -0.0671554828
 H          3.8214773439        1.2996825938       -2.4176317391
 H          2.5875389043        2.5880935398       -4.1200371621
 H          0.5484288926        3.8290003642       -3.4984067574
 H         -0.2646795490        3.7668955865       -1.1514750102
 H         -0.8319082036        3.8210851733        1.9265831027
 H         -3.1586140519        3.3694701354        2.3097600384
 H         -5.0659359960        1.8651483528        1.8890690932
 H         -4.8109785621       -0.1004217740        0.4389216236
 H         -2.2028790834       -0.5475414523       -1.8907617808
 C         -3.6390871485       -1.8644199480       -1.0039901938
 C         -4.7371182620       -1.5951864544       -1.9880943467
 C         -3.7634372921       -2.7062890564       -2.2373916287
 H         -4.1027443204       -3.7257555152       -2.1318884179
 H         -3.0188879649       -2.5720064066       -3.0083809106
 H         -5.7489712554       -1.8534320110       -1.7148780924
 H         -4.6563391657       -0.7059984321       -2.5945720717
 H         -3.8986595266       -2.3246679451       -0.0578071948
