  62
        -98.93727629
 C          1.8587949894        1.3395856576        0.4169239994
 C          2.6360837876        0.9327573875       -0.6939291291
 C          3.8685632263        0.1896224444       -0.3810076187
 C          4.1662541208       -0.0812716909        0.9025154548
 C          5.3412256197       -0.8894422055        1.3751733976
 C          5.0694325007       -2.3924563185        1.1630216135
 C          5.9912005367       -3.0614677536        0.1432070180
 H          6.9719027892       -3.2150866149        0.5983970711
 H          5.5732466410       -4.0457921548       -0.0786947831
 C          6.1978917803       -2.2998550675       -1.1695335073
 H          6.6427388504       -3.0024619408       -1.8774151250
 H          6.9289787386       -1.5037268099       -1.0210054954
 C          4.9367703694       -1.6966405297       -1.8016972167
 H          4.0462594828       -2.2353377466       -1.4764223519
 H          5.0058450129       -1.8243719816       -2.8839416739
 C          4.7463249188       -0.1907663025       -1.5411963754
 H          5.7240973827        0.2863820305       -1.4304074733
 H          4.2599198116        0.2536455809       -2.4146740255
 H          5.1723707938       -2.9189268719        2.1132028891
 H          4.0301312443       -2.5123699513        0.8490999563
 H          6.2368365346       -0.5831839567        0.8392275580
 H          5.4777806193       -0.6744992197        2.4352746052
 O          3.3702103891        0.2901604585        1.9395440266
 C          2.2020720115        1.0020192368        1.7255124821
 O          1.5616156204        1.2648828355        2.7647485331
 O          2.3260973204        1.1802132118       -1.8877336699
 C          0.5769943767        2.1301937501        0.2113931023
 C         -0.4301327123        1.2646409260       -0.5067623138
 C         -1.0063053158        1.5919081172       -1.7258584026
 C         -1.9070551948        0.7287411959       -2.3279315985
 C         -2.2623850910       -0.4629033854       -1.7246283007
 C         -1.7078838408       -0.7887421178       -0.4922046867
 C         -0.8020866514        0.0729221400        0.1055010927
 H         -0.3644552536       -0.1823144028        1.0631238200
 N         -2.0863137816       -1.9830393713        0.1445081916
 S         -3.7164509374       -2.3637598919        0.1743931036
 O         -3.9000892167       -3.1528883115        1.3724265598
 O         -4.0856695242       -3.0067624792       -1.0622265541
 C         -4.5636474197       -0.7992958888        0.3150342652
 C         -4.2871994344       -0.0041926301        1.4097220536
 C         -4.9094943639        1.2288391565        1.5163535059
 C         -5.7934312920        1.6437678560        0.5317810639
 C         -6.0655729900        0.8310578300       -0.5574532918
 C         -5.4443023872       -0.4024182828       -0.6704470607
 H         -5.6235128357       -1.0640014731       -1.5022236428
 H         -6.7547668051        1.1551934406       -1.3203596410
 H         -6.2723258485        2.6064419235        0.6162258776
 H         -4.6987700055        1.8613872900        2.3638158651
 H         -3.5975711528       -0.3554529518        2.1609668767
 H         -1.6611968351       -2.1173101199        1.0498578012
 H         -2.9507087616       -1.1507650657       -2.1883344143
 H         -2.3368508502        0.9878144878       -3.2832560002
 H         -0.7406289160        2.5149778601       -2.2129444158
 H          0.1861639054        2.3316806954        1.2190925428
 C          0.8574659437        3.4500487919       -0.4733246877
 C         -0.0975610803        4.5923008206       -0.3060849950
 C          1.2425442126        4.6316794960        0.3632268471
 H          1.9919231719        5.3095765733       -0.0170349624
 H          1.2867103687        4.4908438920        1.4336767768
 H         -0.2693489029        5.2486899464       -1.1454462560
 H         -0.9672478602        4.4287644107        0.3119422043
 H          1.3561452747        3.3320456330       -1.4276121905
