  62
        -98.94634011
 C         -1.7911802903       -0.7455842160        0.2230770352
 C         -3.0889953700       -1.0021815352        0.7259695095
 C         -4.0119860680        0.1404653325        0.7321996007
 C         -3.5796623266        1.3375222221        0.2948237700
 C         -4.4287885258        2.5710232649        0.1967864678
 C         -5.0910872569        2.6811120504       -1.1837372246
 C         -5.7907107815        1.3997791717       -1.6372719849
 H         -6.2472146323        1.6046044170       -2.6081419593
 H         -5.0414824601        0.6201325812       -1.7935443798
 C         -6.8627902651        0.8841929421       -0.6670417237
 H         -7.1606108903        1.6819334300        0.0143846548
 H         -7.7476652699        0.6014436357       -1.2411680475
 C         -6.4463283543       -0.3449027321        0.1430718156
 H         -6.0588438750       -1.1134519333       -0.5306570820
 H         -7.3387859313       -0.7528773393        0.6250668589
 C         -5.4053791434       -0.0978884532        1.2422982717
 H         -5.7307719509        0.7281141173        1.8779330700
 H         -5.3491976363       -1.0021663025        1.8554750885
 H         -5.8114496787        3.5007057645       -1.1567079417
 H         -4.3216061590        2.9287716950       -1.9186021815
 H         -5.1892665320        2.5453830841        0.9747584172
 H         -3.7901349652        3.4417985124        0.3535421187
 O         -2.3172939523        1.5512158453       -0.1562554752
 C         -1.3950982376        0.5168624140       -0.2161164628
 O         -0.2816797040        0.8475151999       -0.6643139688
 H          1.8700552417       -1.9084917506       -0.6343227986
 C          1.7233016984       -1.6053719638        0.3882619931
 C          0.4521778461       -1.5346576961        0.9349987180
 C          0.3193846047       -1.1364254366        2.2638232442
 C          1.4274551237       -0.8046994449        3.0178211939
 C          2.6941637547       -0.8555069205        2.4608892637
 C          2.8390212344       -1.2581619563        1.1399243069
 N          4.1150706257       -1.3482675893        0.5512939968
 S          4.4475627549       -0.4904923806       -0.8480780843
 O          3.5609550004       -0.9057060960       -1.9027574511
 O          5.8599846449       -0.7046627612       -1.0788980496
 C          4.1744652062        1.2164901783       -0.4075079337
 C          2.8861076341        1.7082136297       -0.3467983288
 C          2.6958912708        3.0203202057        0.0604724944
 C          3.7828528897        3.8112242305        0.3977314538
 C          5.0705066256        3.2997958148        0.3315791835
 C          5.2695228721        1.9893278442       -0.0696269786
 H          6.2517555546        1.5504685031       -0.1404363698
 H          5.9156768470        3.9163199684        0.5923174939
 H          3.6245932726        4.8309027617        0.7122702162
 H          1.6895504800        3.4054623601        0.1089107950
 H          2.0456423960        1.0865085746       -0.6127056322
 H          4.8731546797       -1.2154799059        1.2065458023
 H          3.5621810593       -0.5906012292        3.0455041104
 H          1.3061345174       -0.4978968215        4.0456996749
 H         -0.6711554610       -1.0899313736        2.6959565464
 C         -0.7904571091       -1.8847360713        0.1556407245
 H         -1.2805033889       -2.7342157597        0.6547004278
 C         -0.5195166631       -2.2614400011       -1.2856644527
 C         -0.1081255836       -3.6595051560       -1.6340673062
 C         -1.4784174373       -3.1699980674       -1.9922819484
 H         -1.7037825227       -2.9760789025       -3.0303723687
 H         -2.3192333408       -3.5410854749       -1.4242859116
 H          0.6128425030       -3.7998150071       -2.4255668637
 H         -0.0187990410       -4.3699472234       -0.8261214836
 H         -0.0891202993       -1.4480300812       -1.8604868787
 O         -3.4546390549       -2.1299623918        1.1539997978
