  62
        -98.94008179
 C         -2.5992093824       -1.1611032357        0.2859405728
 C         -2.5897062728       -0.3294273771       -0.8614638011
 C         -3.4975941114        0.8287612843       -0.8200412772
 C         -4.2526008376        1.0430235126        0.2717712645
 C         -5.1753377050        2.2108809337        0.4638812562
 C         -4.4545015897        3.3809188879        1.1481231505
 C         -3.1101868179        3.7356340710        0.5120604085
 H         -2.4146884578        2.9059510727        0.6607465801
 H         -2.7084450969        4.5919599745        1.0583272526
 C         -3.1839151126        4.0715504979       -0.9840824326
 H         -2.5837411789        4.9643115093       -1.1716211824
 H         -4.2121378706        4.3088685897       -1.2593940339
 C         -2.6519526889        2.9744891489       -1.9083247450
 H         -1.6563725343        2.6661867370       -1.5785055370
 H         -2.5477663080        3.3967631592       -2.9111883019
 C         -3.5276871809        1.7209873588       -2.0290408122
 H         -3.1339705024        1.1207662364       -2.8544266777
 H         -4.5527549349        2.0090338972       -2.2705908605
 H         -4.2792366817        3.1159093401        2.1935818403
 H         -5.1112286164        4.2523911860        1.1247423577
 H         -6.0082323220        1.8915673150        1.0926529666
 H         -5.5623436204        2.5243628493       -0.5036625725
 O         -4.2173711003        0.2361884952        1.3639313297
 C         -3.3793995995       -0.8664285447        1.4063239880
 O         -3.4127508884       -1.4919423988        2.4857680639
 O         -1.8681389582       -0.5295577705       -1.8709565226
 C         -1.6952091066       -2.3773609890        0.3921896393
 C         -0.3014859945       -2.0256007377       -0.0699391921
 C          0.3769455914       -2.7041633029       -1.0726928345
 C          1.6604514717       -2.3267400263       -1.4281855305
 C          2.2927094404       -1.2713826974       -0.7981398779
 C          1.6252383096       -0.5873754723        0.2097885869
 C          0.3444971784       -0.9741271933        0.5703747808
 H         -0.1756923714       -0.4413389846        1.3589016380
 N          2.2561801879        0.4979026467        0.8466339094
 S          3.7797730922        0.2360927061        1.5049630065
 O          3.9470393177       -1.1385797100        1.9174927620
 O          3.9218426338        1.2382589083        2.5390349643
 C          4.8976822326        0.6154012390        0.1726973643
 C          4.8024476253        1.8577268307       -0.4231748464
 C          5.6722616942        2.1728190104       -1.4547947842
 C          6.6190569624        1.2471767891       -1.8680339327
 C          6.7039402587        0.0054998160       -1.2570251551
 C          5.8359994410       -0.3166522710       -0.2251542538
 H          5.8602329757       -1.2714196313        0.2754389525
 H          7.4406176337       -0.7124539710       -1.5798874877
 H          7.2946675209        1.4953968991       -2.6712994628
 H          5.6087765312        3.1371227410       -1.9327634030
 H          4.0547883113        2.5485701301       -0.0705391025
 H          1.6653375260        0.9736223693        1.5132718140
 H          3.2884961074       -0.9699662272       -1.0794814527
 H          2.1732409905       -2.8588508441       -2.2148746939
 H         -0.1060303933       -3.5150371015       -1.5922146319
 H         -1.6388343366       -2.5941054280        1.4726760142
 C         -2.2529237301       -3.6301585121       -0.2670662568
 C         -3.7304459170       -3.8282729773       -0.4239749486
 C         -2.8711226489       -3.6122583165       -1.6314650966
 H         -2.6903460582       -4.4525435161       -2.2858267894
 H         -2.9251411226       -2.6640321241       -2.1415967613
 H         -4.1359465419       -4.8131506832       -0.2467047982
 H         -4.3803948425       -3.0260921955       -0.1051025210
 H         -1.6790693648       -4.5131530031       -0.0024176927
