  62
        -98.94088380
 C          2.6673963495        1.1278638601       -0.3997877221
 C          2.1600544994       -0.0286590502       -1.0405107115
 C          3.0141761995       -1.2243221201       -0.9753936213
 C          4.1954682597       -1.1617674798       -0.3352757118
 C          5.1344305199       -2.3172860696       -0.1481331117
 C          4.8455245005       -3.0606959291        1.1634658887
 C          3.3707333306       -3.4099508492        1.3653538394
 H          2.7960082605       -2.4882388692        1.4868769192
 H          3.2924069010       -3.9598641788        2.3058615697
 C          2.7543571402       -4.2439769997        0.2336266000
 H          2.1610686205       -5.0473364996        0.6754157905
 H          3.5448359401       -4.7101444498       -0.3558637301
 C          1.8225670898       -3.4632768901       -0.6953129500
 H          1.0823712900       -2.9202855100       -0.1005600500
 H          1.2791201297       -4.1836004204       -1.3128897395
 C          2.5067042494       -2.4708118904       -1.6441512007
 H          1.7596209591       -2.1379165208       -2.3704680805
 H          3.3115718093       -2.9738151306       -2.1838764507
 H          5.1637610507       -2.4299908887        1.9967366084
 H          5.4424535406       -3.9743128190        1.1813197889
 H          6.1541505899       -1.9299177295       -0.1182163322
 H          5.0384272897       -2.9973427499       -0.9921652314
 O          4.6517081298       -0.0324295295        0.2636769776
 C          3.8966750697        1.1271058704        0.2644547874
 O          4.4222786698        2.0798546507        0.8740675568
 O          1.0577153192       -0.0742795606       -1.6478815911
 C          1.8702770594        2.4231419800       -0.3522794624
 C          0.6788163297        2.1931543902        0.5454999281
 C          0.8386326302        2.2955661408        1.9246328780
 C         -0.2097730395        2.0100122410        2.7790971985
 C         -1.4358732596        1.6071448807        2.2783128191
 C         -1.6006450101        1.4915179502        0.9050887192
 C         -0.5521246804        1.7979683699        0.0468867987
 H         -0.6872932408        1.6872057895       -1.0171550712
 N         -2.8409823202        1.0746378198        0.3797759598
 S         -3.5371946898       -0.2876177500        1.1000806606
 O         -4.1938094794        0.1280970805        2.3150741307
 O         -2.5553497197       -1.3395618698        1.2454038107
 C         -4.7570775302       -0.7281340506       -0.1213619888
 C         -6.0050359903       -0.1377062607       -0.0628367585
 C         -6.9423446106       -0.4568248111       -1.0323391181
 C         -6.6173612309       -1.3545303315       -2.0383972078
 C         -5.3605328008       -1.9392218414       -2.0835692581
 C         -4.4176741405       -1.6234098009       -1.1179185385
 H         -3.4306999405       -2.0589349608       -1.1109639887
 H         -5.1108334510       -2.6380542317       -2.8657478479
 H         -7.3483867311       -1.6026139519       -2.7915981775
 H         -7.9210891306       -0.0061201312       -1.0003795379
 H         -6.2134120900        0.5471181296        0.7423504413
 H         -2.7809193106        0.9368060794       -0.6210795301
 H         -2.2560893193        1.3610469009        2.9331974295
 H         -0.0717154891        2.0943411815        3.8468582284
 H          1.8037717003        2.5846502811        2.3180443576
 H          2.5234600195        3.1603127303        0.1328191771
 C          1.5120162088        2.9253943594       -1.7351294725
 C          1.0185995686        4.3309391593       -1.8965030428
 C          2.3832374785        3.9543335192       -2.3876665732
 H          2.5487767781        3.8870981788       -3.4524889332
 H          3.2419801087        4.3059093395       -1.8345301136
 H          0.2461433584        4.5268800789       -2.6241861026
 H          0.9495589789        4.9381866997       -1.0065949131
 H          1.0892635887        2.1618245791       -2.3753432720
