  62
        -98.95136043
 C         -1.8122813471       -1.2694036074       -0.2871634873
 C         -2.9121403233       -0.5999813901        0.2965569862
 C         -3.2420231582        0.7072830654       -0.2793902250
 C         -2.5213389576        1.1837153273       -1.3111336036
 C         -2.7199965973        2.5111065469       -1.9900191764
 C         -2.0170073178        3.6683245927       -1.2665480237
 C         -2.6951294266        4.1308434247        0.0238452674
 H         -2.2471437126        5.0890386664        0.2948947264
 H         -3.7559412918        4.3055412150       -0.1621497960
 C         -2.5262652237        3.1622138876        1.2028071119
 H         -2.2573097902        3.7259800119        2.0999132919
 H         -1.6916028146        2.4864145957        0.9978444493
 C         -3.7746361628        2.3456760014        1.5402431584
 H         -4.5642048345        3.0148650612        1.8908307950
 H         -3.5242824346        1.6633357441        2.3569078548
 C         -4.3244473741        1.5103207041        0.3767600074
 H         -5.0616972880        0.8100382019        0.7779761387
 H         -4.8145674475        2.1563183266       -0.3512236360
 H         -0.9903989221        3.3661938826       -1.0420707441
 H         -1.9770493436        4.5140147958       -1.9574594010
 H         -2.2921496758        2.4179701857       -2.9905021031
 H         -3.7847069759        2.7272526573       -2.0835972767
 O         -1.5050502762        0.4855918961       -1.8791338712
 C         -1.0919136029       -0.7244207206       -1.3493054614
 O         -0.0970803364       -1.2209600805       -1.9145338310
 H         -0.2271607852       -0.4088966971        1.4522509716
 C          0.4981368297       -1.1990950806        1.3232406793
 C          0.1122127947       -2.4102594704        0.7629911567
 C          1.0693209633       -3.4086421022        0.6295536229
 C          2.3793580570       -3.1836775685        1.0176484065
 C          2.7696798851       -1.9546169166        1.5174619967
 C          1.8167592126       -0.9539478953        1.6647916176
 N          2.1548493920        0.3381264595        2.1252824390
 S          2.0176348965        1.5616204631        0.9815760999
 O          2.4863970701        2.7573209838        1.6498185420
 O          0.6763693692        1.6057342423        0.4634327748
 C          3.1916376083        1.0895065973       -0.2756544027
 C          2.8344764290        0.1563991048       -1.2280001868
 C          3.7959232911       -0.2686725580       -2.1333470363
 C          5.0844692340        0.2379032890       -2.0705701926
 C          5.4252824578        1.1762140108       -1.1074534303
 C          4.4729634014        1.6023308516       -0.1967119566
 H          4.6890766194        2.3310083256        0.5681196544
 H          6.4270549177        1.5720536536       -1.0616545033
 H          5.8259659287       -0.1001523272       -2.7772265539
 H          3.5222927379       -0.9976817397       -2.8791756694
 H          1.8245460883       -0.2231412066       -1.2662241632
 H          3.0742716580        0.3901132896        2.5437474222
 H          3.7981302696       -1.7670615638        1.7874144069
 H          3.1108999094       -3.9693135089        0.9067282761
 H          0.7902525541       -4.3625827936        0.2126083572
 C         -1.3235867398       -2.5695113362        0.3240154591
 H         -1.9476130467       -2.7291728196        1.2165502181
 C         -1.5323547978       -3.7264836982       -0.6312564922
 C         -1.8189382074       -5.1019459358       -0.1087852122
 C         -2.9057185448       -4.3097039293       -0.7689958368
 H         -3.2433003641       -4.6085556557       -1.7499564929
 H         -3.6844238602       -3.8894901704       -0.1492313573
 H         -1.8680821659       -5.2308413315        0.9619019995
 H         -1.4126132410       -5.9500314861       -0.6390660889
 H         -0.9359511634       -3.6318091142       -1.5318004800
 O         -3.5770764967       -1.0683320541        1.2614667929
