  62
        -98.93091774
 C          0.2834230204       -1.7566135366       -0.8449924015
 C          1.0239799347       -1.9480036700        0.3449090343
 C          2.3743902710       -1.3542231565        0.3763278637
 C          2.8088531290       -0.6338744617       -0.6737369665
 C          4.1334854433        0.0542552128       -0.9287364446
 C          5.1134018932        0.3140052403        0.2129409037
 C          4.6296066561        1.3089524045        1.2672545499
 H          5.3684132104        1.3352628110        2.0712743242
 H          4.5931767807        2.3035423675        0.8172887876
 C          3.2545366891        1.0236511678        1.8659356651
 H          3.0425263259        1.8032413124        2.6020606739
 H          2.4908003572        1.0992992570        1.0893856079
 C          3.1132174730       -0.3249345287        2.5685660524
 H          2.1474316143       -0.3284444648        3.0810888398
 H          3.8939872880       -0.4328568067        3.3240972617
 C          3.1486033126       -1.5561480388        1.6468672547
 H          4.1696768531       -1.8600940612        1.4290456218
 H          2.6641442952       -2.3841220446        2.1724506005
 H          5.4029218849       -0.6226785855        0.6801845785
 H          6.0160799634        0.7300872051       -0.2430158625
 H          4.6423546551       -0.5525094793       -1.6862304498
 H          3.8842414366        1.0036782040       -1.4110512540
 O          2.0426040763       -0.4554555938       -1.7908577427
 C          0.7786085231       -1.0028108379       -1.9059205515
 O          0.2028744695       -0.7459747631       -2.9842679729
 H         -1.5382861124        0.1817478713       -0.5459055313
 C         -2.0229420833       -0.3938696689        0.2293171197
 C         -1.9361432057       -1.7851986227        0.1861722224
 C         -2.5597051989       -2.5016850864        1.1978146463
 C         -3.2504649418       -1.8423058413        2.2026421877
 C         -3.3439422640       -0.4651713439        2.2268504342
 C         -2.7142354770        0.2691656555        1.2263733402
 N         -2.7492478800        1.6687195978        1.2363469448
 S         -2.6152407431        2.5825729951       -0.1526820029
 O         -3.1615893036        3.8695121134        0.2247343661
 O         -3.2394242131        1.9393994337       -1.2847576793
 C         -0.8640252889        2.7727689383       -0.4069029652
 C         -0.2841595210        2.3748023226       -1.5937721823
 C          1.0724270366        2.5888645479       -1.7835197809
 C          1.8194646810        3.1981666341       -0.7885260372
 C          1.2230278537        3.5909001431        0.4007730292
 C         -0.1310808217        3.3782354288        0.5956585881
 H         -0.6337009943        3.6789636965        1.4997890775
 H          1.8107841603        4.0613019695        1.1723865015
 H          2.8731656372        3.3716161217       -0.9421394181
 H          1.5310226693        2.2663389833       -2.7051439611
 H         -0.8888855712        1.8949676035       -2.3485188585
 H         -3.3550908518        2.0874983090        1.9253747621
 H         -3.8852149041        0.0405257591        3.0116254943
 H         -3.7250188051       -2.4196337442        2.9818683452
 H         -2.5030610204       -3.5737348298        1.2386828517
 C         -1.1293310707       -2.3128730381       -0.9778301546
 H         -1.5442403617       -1.8265038063       -1.8774533833
 C         -1.0572399096       -3.7934472131       -1.3170136854
 C         -0.8713085369       -4.9091755627       -0.3372289429
 C         -2.1575548619       -4.7886169398       -1.1008989352
 H         -2.3447111072       -5.5047643442       -1.8877934843
 H         -3.0502849204       -4.4674374263       -0.5898954740
 H         -0.1909186701       -5.7033400339       -0.6103211126
 H         -0.8346915928       -4.6611429281        0.7105574530
 H         -0.5088778898       -3.9031205875       -2.2513687354
 O          0.5926375089       -2.5844528167        1.3383839350
