  62
        -98.94272742
 C         -0.9663044460       -1.2774470795       -0.4348905392
 C         -1.9498433712       -1.4845670968        0.5670323105
 C         -2.9086772330       -0.3943977800        0.7819501381
 C         -2.7930705549        0.7299057074        0.0525527513
 C         -3.7364545386        1.8948846720        0.1188656745
 C         -4.8789321647        1.7420349104       -0.8952568120
 C         -5.5650911306        0.3767250592       -0.8540457876
 H         -6.3719660808        0.3951252685       -1.5900208966
 H         -4.8553582054       -0.3891541339       -1.1753151215
 C         -6.1345068020       -0.0061463271        0.5190996515
 H         -6.2302039866        0.8837697885        1.1420978692
 H         -7.1380207039       -0.4142636580        0.3808897497
 C         -5.3227429497       -1.0641579462        1.2688056195
 H         -5.1470278689       -1.9224457207        0.6152385680
 H         -5.9202024649       -1.4150331321        2.1145636863
 C         -3.9713781856       -0.5977827713        1.8249982731
 H         -4.1107235855        0.3099601686        2.4153358194
 H         -3.5953619452       -1.3842334855        2.4858222006
 H         -5.6151259686        2.5257854354       -0.7075983526
 H         -4.4730914431        1.8895332180       -1.8986762184
 H         -4.1390924859        1.9730192217        1.1266499713
 H         -3.1779460062        2.8015047289       -0.1146053924
 O         -1.8234204126        0.9078802075       -0.8769216531
 C         -0.8869832054       -0.0833366466       -1.1541504382
 O         -0.0776376343        0.2383489095       -2.0417876933
 H          1.4857076704       -0.1945253346       -0.1532716049
 C          1.8421112424       -1.0439806144        0.4077412747
 C          1.2061302607       -2.2694334913        0.2716507466
 C          1.6786339335       -3.3538810762        1.0018907458
 C          2.7703301346       -3.2135978074        1.8401837433
 C          3.4133608341       -1.9948958290        1.9591733481
 C          2.9434716889       -0.9019648392        1.2389414900
 N          3.5457959582        0.3556558856        1.3650883592
 S          3.5800005170        1.4145119754        0.0704741608
 O          3.7903258388        0.7185720094       -1.1766545200
 O          4.6069117346        2.3723834021        0.4300370998
 C          2.0091979984        2.2481143657        0.1059784720
 C          1.4178953553        2.5051287631        1.3272040976
 C          0.2374946336        3.2288444986        1.3586728273
 C         -0.3208032966        3.6906379398        0.1766038693
 C          0.2819172629        3.4193705426       -1.0405979455
 C          1.4594920640        2.6898779179       -1.0798407608
 H          1.9465734051        2.4393551158       -2.0084268897
 H         -0.1627430289        3.7613824318       -1.9612474352
 H         -1.2328882499        4.2663380496        0.2051928710
 H         -0.2428296715        3.4310449792        2.3027357961
 H          1.8801429259        2.1323376178        2.2264062202
 H          4.3934941761        0.3840863715        1.9120125645
 H          4.2682865056       -1.8843023948        2.6085308241
 H          3.1280037124       -4.0620941637        2.4033901429
 H          1.1761810999       -4.3063109170        0.9186867616
 C          0.0201335362       -2.4118592822       -0.6480923885
 H         -0.5217555305       -3.3214500867       -0.3413124182
 C          0.4310879214       -2.6044004361       -2.1002833696
 C          1.7352197655       -2.1370510997       -2.6653141912
 C          1.4934834463       -3.6009521802       -2.4607381832
 H          1.3434139965       -4.2262879205       -3.3279157166
 H          2.0197480591       -4.0844408783       -1.6515330988
 H          1.7272981646       -1.7426629671       -3.6703174676
 H          2.4296098150       -1.6227304710       -2.0183811038
 H         -0.4234666040       -2.5434501216       -2.7675910503
 O         -2.0250291705       -2.5448557149        1.2451776689
