  62
        -98.93468397
 C         -2.0249941601       -1.0038596511        0.4795167194
 C         -2.7394856402       -0.0101752816        1.1932966801
 C         -4.1589265702        0.1762643484        0.8508012204
 C         -4.7070166902       -0.5861104110       -0.1136019901
 C         -6.1228329903       -0.6537601408       -0.6466701600
 C         -7.1233619304        0.4597179289       -0.3478559992
 C         -6.7934194906        1.8065515594       -0.9902122683
 H         -6.9155543807        1.7152831401       -2.0724852784
 H         -7.5196205006        2.5409370291       -0.6347765478
 C         -5.3850215906        2.3351375194       -0.7292861181
 H         -4.6506127706        1.6620014897       -1.1765786586
 H         -5.2892806407        3.2975744097       -1.2394198375
 C         -5.0283405105        2.5517831784        0.7402272120
 H         -4.0704820005        3.0784778585        0.7708122423
 H         -5.7771333305        3.1927895080        1.2097454825
 C         -4.8786241203        1.2722693679        1.5820030711
 H         -5.8418783302        0.9230599275        1.9465600710
 H         -4.2649809102        1.5129912874        2.4550460412
 H         -8.0848951304        0.1296783791       -0.7505407093
 H         -7.2538377103        0.5720701682        0.7244221109
 H         -6.0263392004       -0.7663386001       -1.7311326601
 H         -6.5360072701       -1.5979203911       -0.2748005806
 O         -3.9819752002       -1.5339937705       -0.7726052208
 C         -2.6350991001       -1.7611172105       -0.5195794411
 O         -2.1358000901       -2.6423494800       -1.2410786517
 O         -2.2097215202        0.6898714478        2.0988381505
 C         -0.5616062101       -1.1768003912        0.8425030491
 C          0.3028792897       -0.2673070905        0.0078488397
 C          0.2000308596       -0.2504185996       -1.3795940103
 C          1.0064932595        0.5828625510       -2.1333468198
 C          1.9333325894        1.4095800907       -1.5222426494
 C          2.0469057796        1.3965069098       -0.1389171094
 C          1.2337498297        0.5614139492        0.6165192301
 H          1.3148681098        0.5684464285        1.6950428701
 N          3.0158160295        2.2123265895        0.4801199410
 S          4.6038203195        1.9196216699        0.0199420107
 O          5.4197492596        2.4542793693        1.0858481710
 O          4.8275926493        2.4688184308       -1.2925106490
 C          4.7079722197        0.1402360800       -0.0264855705
 C          4.8557010999       -0.5363121008        1.1683611491
 C          4.8348667000       -1.9214687208        1.1617032382
 C          4.6525248200       -2.6028813300       -0.0321587323
 C          4.5080934698       -1.9090422693       -1.2231290318
 C          4.5353477697       -0.5235157893       -1.2243207609
 H          4.4301268695        0.0512127113       -2.1295179505
 H          4.3669168298       -2.4421941787       -2.1494488421
 H          4.6193780501       -3.6805155800       -0.0335039930
 H          4.9506631602       -2.4648644214        2.0857446178
 H          4.9960408599        0.0299147586        2.0754416494
 H          2.9449923096        2.2218331388        1.4879013511
 H          2.5740925393        2.0609110911       -2.0945190090
 H          0.9132102294        0.5885669217       -3.2088496198
 H         -0.5154499904       -0.9021894894       -1.8582178907
 H         -0.4925832600       -0.8287968018        1.8854665594
 C         -0.0895912299       -2.6241329311        0.8140287481
 C          0.9176222100       -3.1488544204       -0.1609412623
 C          1.2977106401       -2.9617312813        1.2749294578
 H          1.4390583103       -3.8334967316        1.8950665672
 H          1.9559449801       -2.1382727713        1.5090077183
 H          0.7693895801       -4.1493913401       -0.5365418629
 H          1.3309233499       -2.4677656198       -0.8879565319
 H         -0.8786445098       -3.3109039214        1.1016141878
