  62
        -98.93659576
 C          2.1285367828        0.9386427392        0.1988264389
 C          2.5241186937        0.0032734226        1.1808809364
 C          2.8412903718       -1.3537850567        0.7057132431
 C          2.6997139353       -1.6362495437       -0.6011797333
 C          3.0047444856       -2.9361887885       -1.2925611034
 C          4.4361937952       -2.9311601769       -1.8557091000
 C          5.5154514955       -3.3905796701       -0.8758823597
 H          5.4206745255       -4.4668800697       -0.7180219677
 H          6.4822884106       -3.2127685600       -1.3520347579
 C          5.5028918470       -2.6933720818        0.4870402399
 H          6.4915906074       -2.8140973941        0.9337092039
 H          5.3375687243       -1.6231202868        0.3510771166
 C          4.4511455398       -3.2664961905        1.4484653792
 H          4.9255494749       -3.5060741777        2.4022794960
 H          4.0750908922       -4.2065144254        1.0451794658
 C          3.2722146229       -2.3335421038        1.7634844973
 H          2.4049508914       -2.9380380509        2.0507276787
 H          3.5199500644       -1.7128425259        2.6304229116
 H          4.6559338747       -1.9169839967       -2.1989691162
 H          4.4704674966       -3.5857227131       -2.7289158229
 H          2.3005039461       -3.0161740148       -2.1236171348
 H          2.8478464549       -3.7752108797       -0.6210562614
 O          2.2883890302       -0.7116468841       -1.5123252857
 C          1.9818326213        0.5859794094       -1.1428769732
 O          1.6038164015        1.3140945238       -2.0803837894
 O          2.6042297226        0.2879097607        2.4079678518
 C          1.7512749547        2.3462166956        0.6274813381
 C          0.2943915251        2.5743522157        0.3062794574
 C         -0.1860366302        3.6761843563       -0.3878731160
 C         -1.5310098410        3.7761525292       -0.7035735432
 C         -2.4236901590        2.7870559542       -0.3338057451
 C         -1.9554485235        1.6933446216        0.3800869001
 C         -0.6130691061        1.5987872377        0.7018332000
 H         -0.2538112614        0.7325412136        1.2457907511
 N         -2.8624709584        0.6608693231        0.7421714083
 S         -3.1696828722       -0.4209392398       -0.5252946963
 O         -2.1541728526       -1.4556869503       -0.5398751006
 O         -3.3502327037        0.3301586948       -1.7402035749
 C         -4.7275971067       -1.1116566286       -0.0024321345
 C         -4.7618022969       -2.3516811444        0.6043113254
 C         -5.9795502176       -2.8518943905        1.0388686683
 C         -7.1344212092       -2.1050694573        0.8639437602
 C         -7.0835434956       -0.8604570289        0.2536032422
 C         -5.8696333497       -0.3557514679       -0.1834828646
 H         -5.7814460848        0.6015746128       -0.6695377307
 H         -7.9839145791       -0.2833315635        0.1178722226
 H         -8.0802271757       -2.4963819632        1.2039111570
 H         -6.0216046556       -3.8199150344        1.5117742933
 H         -3.8396992728       -2.8999805887        0.7128339088
 H         -2.4934514246        0.1096717837        1.5077622109
 H         -3.4656756295        2.8389638562       -0.6022193432
 H         -1.8851150344        4.6328831382       -1.2565154655
 H          0.4961839079        4.4497729229       -0.7004056461
 H          1.8722145601        2.3629909773        1.7208869999
 C          2.6816357553        3.3705844299        0.0155497185
 C          2.9175534502        4.6794683872        0.7067649309
 C          3.9976150045        3.6415131169        0.6790018289
 H          4.8629823025        3.8108718643        0.0561321821
 H          4.2140523036        3.1013950291        1.5891651945
 H          3.0444574776        5.5653500540        0.1032527722
 H          2.4035138708        4.8503263455        1.6403813680
 H          2.6601535428        3.3564177759       -1.0683517821
