  62
        -98.94493709
 C         -1.9532506930       -0.8467363899        0.0524585065
 C         -2.2761293507        0.1021738210        1.0495748137
 C         -2.3863957591        1.4924760099        0.5977459420
 C         -2.1404704112        1.7960063752       -0.6898676973
 C         -2.1703028259        3.1742662819       -1.2938919688
 C         -3.5711118624        3.6492718164       -1.7044992664
 C         -4.4992746851        4.0168874831       -0.5460601975
 H         -3.9917418194        4.7209860204        0.1138495976
 H         -5.3591194752        4.5336772880       -0.9766704833
 C         -5.0017131206        2.8163917589        0.2679178055
 H         -4.8459641339        1.8983611732       -0.3032592971
 H         -6.0768522112        2.9129639479        0.4341239322
 C         -4.3440448366        2.6605871717        1.6390906048
 H         -4.7461919691        1.7613526563        2.1124334643
 H         -4.5989973029        3.5160655059        2.2683506539
 C         -2.8159675280        2.5270180653        1.5939350928
 H         -2.3583433806        3.4892178729        1.3636710893
 H         -2.4671666473        2.2026487885        2.5777272883
 H         -3.4427984899        4.5326849028       -2.3341306959
 H         -4.0373546162        2.8712186100       -2.3131345726
 H         -1.7301107359        3.8868388329       -0.5953603643
 H         -1.5413403754        3.1320779495       -2.1859477803
 O         -1.8115653596        0.8566246514       -1.6161693879
 C         -1.7083523555       -0.4817466831       -1.2715415700
 O         -1.4108059813       -1.2354333922       -2.2188528628
 O         -2.4596157632       -0.1994412405        2.2613066983
 C         -1.7798922108       -2.3020431362        0.4455735288
 C         -0.3762580037       -2.7488907672        0.1167087531
 C         -0.0776791060       -3.9764515509       -0.4601298212
 C          1.2316393569       -4.3040872672       -0.7683185365
 C          2.2625353622       -3.4170131786       -0.5214721385
 C          1.9758494352       -2.1939648522        0.0755495446
 C          0.6690997063       -1.8811885884        0.4074210598
 H          0.4596096729       -0.9262886376        0.8689235004
 N          2.9989359591       -1.2730932304        0.3665477953
 S          2.6429038036        0.3734426576        0.2331067850
 O          2.0092549895        0.8115198177        1.4527337842
 O          1.9302132485        0.6424951881       -0.9956478821
 C          4.2956158940        1.0401156787        0.1521531299
 C          5.0192496357        1.1556445647        1.3242510314
 C          6.3173270671        1.6371669755        1.2652092210
 C          6.8674992975        1.9926290812        0.0424434379
 C          6.1283688674        1.8737089667       -1.1248319667
 C          4.8298354280        1.3909457993       -1.0730387407
 H          4.2138007581        1.2865587239       -1.9520056544
 H          6.5568492025        2.1538257281       -2.0736235676
 H          7.8778616228        2.3673684615       -0.0009582218
 H          6.8938695394        1.7334843316        2.1709251485
 H          4.5450349197        0.8754396226        2.2502861166
 H          3.8668736897       -1.4975072361       -0.1018026359
 H          3.2792348624       -3.6644230236       -0.7863667284
 H          1.4493863197       -5.2578682292       -1.2245563917
 H         -0.8714109656       -4.6709019894       -0.6818970522
 H         -1.9035743197       -2.3271083200        1.5392940472
 C         -2.8537399851       -3.1616993314       -0.1881469852
 C         -3.3415151059       -4.3986279830        0.5037654416
 C         -4.2181097030       -3.1858216460        0.4310730245
 H         -5.0793134902       -3.2064622930       -0.2196868654
 H         -4.3627025703       -2.6017842322        1.3283834981
 H         -3.6053038539       -5.2554025563       -0.0976780651
 H         -2.8983656041       -4.6453390011        1.4566679425
 H         -2.7941759240       -3.1652412982       -1.2708970130
