  62
        -98.94059469
 C          2.3402955733       -0.1695941427       -0.2813417037
 C          3.5129748555       -0.5294000481       -0.9876470589
 C          4.7238459538        0.2220826825       -0.6400595804
 C          4.6588544935        1.2029572276        0.2788640229
 C          5.8012991788        2.0758928473        0.7228152718
 C          6.6778485882        1.4478111342        1.8150495704
 C          7.5842520261        0.3087871490        1.3464935841
 H          8.1605668009        0.6370795608        0.4810055891
 H          8.2923055134        0.1107150211        2.1536083136
 C          6.8435041903       -0.9931054397        1.0104716975
 H          5.8433982217       -0.9675437122        1.4494781397
 H          7.3686917059       -1.8380283800        1.4616204203
 C          6.7189413664       -1.2843319849       -0.4850738076
 H          6.1473579743       -2.2079174295       -0.6072456266
 H          7.7117256428       -1.4437026461       -0.9116039030
 C          6.0143600916       -0.1820904056       -1.2868509498
 H          6.6710601289        0.6802597556       -1.3989069426
 H          5.7795491780       -0.5761810449       -2.2786664343
 H          7.3085232540        2.2412317428        2.2226636958
 H          6.0304679266        1.0914165056        2.6196091982
 H          6.4195246379        2.3363396645       -0.1366516977
 H          5.3560015157        2.9897222310        1.1217796184
 O          3.5045039815        1.5367486340        0.9158718406
 C          2.3236281441        0.8512746918        0.6687826370
 O          1.3527305048        1.2448502645        1.3427910621
 O          3.5435843606       -1.4282684629       -1.8707290420
 C          1.0531421080       -0.9203942097       -0.5670026435
 C         -0.0234861817        0.0343302871       -1.0194443557
 C          0.2545642120        0.9121660748       -2.0650686802
 C         -0.7026372302        1.7988463644       -2.5167613954
 C         -1.9636943301        1.8204745783       -1.9466632311
 C         -2.2516644456        0.9496473553       -0.9032797784
 C         -1.2846373210        0.0632992335       -0.4475553640
 H         -1.5379871536       -0.5998076937        0.3622756865
 N         -3.5126267885        0.9653563067       -0.2867013289
 S         -4.1575454721       -0.4852047374        0.2843548193
 O         -3.6258574831       -0.7559528028        1.5962082346
 O         -3.9855644104       -1.5269942111       -0.7030993277
 C         -5.8793360646       -0.0379895867        0.4153495751
 C         -6.7474093270       -0.3729292073       -0.6067511937
 C         -8.0774661587        0.0043362357       -0.5075534939
 C         -8.5140005613        0.7088201617        0.6042999672
 C         -7.6311874037        1.0372003526        1.6225919825
 C         -6.3003400730        0.6620193741        1.5303893538
 H         -5.5803211144        0.8865530914        2.3001331089
 H         -7.9746826406        1.5824082171        2.4868830779
 H         -9.5494136999        1.0012602018        0.6795034798
 H         -8.7669344758       -0.2528739021       -1.2954203824
 H         -6.3649272988       -0.9290225797       -1.4475032684
 H         -4.1963288393        1.5072178871       -0.7970418289
 H         -2.7135393758        2.5116174084       -2.3004610162
 H         -0.4694104476        2.4749378990       -3.3257016717
 H          1.2376078569        0.8894876781       -2.5160732843
 H          1.2861092237       -1.5922849336       -1.4073720583
 C          0.6547646205       -1.7608914823        0.6274692241
 C         -0.1826131759       -2.9892055762        0.4388290069
 C          1.2647157166       -3.1176025658        0.8052737803
 H          1.5181308948       -3.4425529958        1.8032222142
 H          1.9560712007       -3.4532849046        0.0460766367
 H         -0.9312361981       -3.2195969772        1.1825381703
 H         -0.4802046124       -3.2406589586       -0.5682576842
 H          0.4892643585       -1.1658615972        1.5196147125
