  62
        -98.93554677
 C          1.7276425304        0.8645082036        0.2517473454
 C          1.9744198628       -0.5080568716       -0.0099880270
 C          3.2902295996       -0.8584786801       -0.5702118305
 C          4.1711935783        0.1252952597       -0.8198507745
 C          5.5756929391       -0.0068258478       -1.3406366745
 C          6.5825466084       -0.0748100581       -0.1798651984
 C          6.8347698513       -1.4772734529        0.3721828382
 H          7.4047723738       -2.0534672054       -0.3597293410
 H          7.4596965209       -1.3686897404        1.2616890374
 C          5.5787363865       -2.2681937971        0.7469904563
 H          4.8763938581       -1.6164411551        1.2698324040
 H          5.8739754099       -3.0524906989        1.4467458674
 C          4.8890015740       -2.9155106944       -0.4632178558
 H          4.7265685322       -3.9763785801       -0.2617926642
 H          5.5560375687       -2.8634636816       -1.3234615110
 C          3.5218981993       -2.3216448951       -0.8324055865
 H          3.3196450271       -2.5220677515       -1.8898622331
 H          2.7375469246       -2.8311632058       -0.2640794041
 H          7.5373526191        0.3314373130       -0.5198677441
 H          6.2170671075        0.5756363485        0.6189781499
 H          5.6664720264       -0.8710945814       -1.9917814893
 H          5.7768054291        0.8949694187       -1.9227383168
 O          3.8923761431        1.4317801691       -0.5673820911
 C          2.6819840090        1.8409889449       -0.0328820005
 O          2.6060743452        3.0755405860        0.1268133838
 O          1.1274932261       -1.4107585347        0.2285168881
 C          0.3720968226        1.2033502026        0.8446478592
 C         -0.6133437975        1.6588312018       -0.2052571237
 C         -0.3787450207        2.7826163529       -0.9903185381
 C         -1.3181737011        3.1922347930       -1.9185312098
 C         -2.5129036291        2.5088951185       -2.0646077056
 C         -2.7574654207        1.3860153355       -1.2834255684
 C         -1.8005339943        0.9613871378       -0.3724202793
 H         -1.9879554081        0.0783096211        0.2188793570
 N         -3.9524753017        0.6656975678       -1.4104538616
 S         -4.6844718177        0.0033205374       -0.0587784568
 O         -6.0707684784       -0.1563229495       -0.4428281175
 O         -4.4391182366        0.7970063888        1.1222766410
 C         -3.9435403411       -1.6059170610        0.1067131158
 C         -3.9327948465       -2.4385834084       -0.9945444782
 C         -3.3757878102       -3.7010323742       -0.8725726745
 C         -2.8448110006       -4.1084629812        0.3419099430
 C         -2.8675643105       -3.2625288887        1.4395180151
 C         -3.4225721398       -1.9981203289        1.3233717934
 H         -3.4547532751       -1.3062169826        2.1507534964
 H         -2.4513240735       -3.5797298681        2.3822892595
 H         -2.4085790352       -5.0905304251        0.4344375431
 H         -3.3544271138       -4.3627293743       -1.7235553403
 H         -4.3567452834       -2.0876874330       -1.9206102937
 H         -4.6247703602        1.0612903860       -2.0511138446
 H         -3.2511317926        2.8412472470       -2.7787511205
 H         -1.1244707251        4.0633178581       -2.5264089345
 H          0.5444983554        3.3273979057       -0.8666014918
 H         -0.0049514893        0.2562502011        1.2543958284
 C          0.4248129980        2.2207594748        1.9694232361
 C         -0.7765501972        2.3759609798        2.8520133193
 C          0.4732468961        1.7472483583        3.3894783117
 H          1.0669003587        2.3046655934        4.0985047516
 H          0.4743243246        0.6807850291        3.5618322889
 H         -1.0393413210        3.3666300949        3.1905899525
 H         -1.6311139413        1.7447514731        2.6547769069
 H          0.9830520109        3.1129637172        1.7178317730
