  62
        -98.94518426
 C         -1.8145870027       -1.4074098359       -0.0490126411
 C         -2.9187213753       -0.6957038069        0.4822034109
 C         -3.3001914350        0.5317664224       -0.2218782690
 C         -2.6078133160        0.9187587511       -1.3083299668
 C         -2.8587929419        2.1568474969       -2.1243643778
 C         -2.1751161408        3.4038268801       -1.5463156553
 C         -2.8378652191        3.9805786687       -0.2946046669
 H         -2.4102378488        4.9723069773       -0.1338329914
 H         -3.9066996390        4.1086904026       -0.4722960681
 C         -2.6188098273        3.1425121031        0.9729507997
 H         -2.3416668745        3.8016761017        1.7999672105
 H         -1.7737171132        2.4663178764        0.8153332733
 C         -3.8405042889        2.3399544369        1.4238682544
 H         -3.5592688223        1.7554324299        2.3040923293
 H         -4.6385491484        3.0261254020        1.7173500166
 C         -4.3923368189        1.3711165197        0.3695643424
 H         -5.1018969263        0.7001357328        0.8605459863
 H         -4.9141603906        1.9231935564       -0.4116455990
 H         -1.1346603011        3.1556523344       -1.3187590603
 H         -2.1768368700        4.1723361630       -2.3230916712
 H         -3.9309595100        2.3326477239       -2.2168694100
 H         -2.4471329453        1.9665322415       -3.1178155250
 O         -1.5706714554        0.1998351805       -1.8029820442
 C         -1.0980233782       -0.9270749605       -1.1481866558
 O         -0.0669847436       -1.4048023105       -1.6575185758
 O         -3.5450672376       -1.0615607421        1.5149806261
 C         -1.2948148464       -2.5970487579        0.7448512007
 C          0.1693483296       -2.3570415368        1.0106743692
 C          1.1934278177       -3.2146644204        0.6343020474
 C          2.5173309314       -2.8453950383        0.8066731407
 C          2.8460827620       -1.6058210328        1.3251713149
 C          1.8264120521       -0.7504705122        1.7199773412
 C          0.5070497395       -1.1419591652        1.5960844839
 H         -0.2809435813       -0.4591097903        1.8925644356
 N          2.1559129289        0.5717416419        2.1451604538
 S          1.9603522388        1.6448630355        0.8495265993
 O          2.2940615125        2.9531905648        1.3744569814
 O          0.6419569658        1.5383058416        0.2619550731
 C          3.2196379360        1.0906955427       -0.2723609543
 C          4.5058301701        1.5592785966       -0.0843065401
 C          5.5156787252        1.0927412455       -0.9094634880
 C          5.2228981034        0.1646228328       -1.8980849836
 C          3.9270333394       -0.2966193131       -2.0702756878
 C          2.9088891468        0.1669868886       -1.2503144315
 H          1.8926802895       -0.1823260848       -1.3586646595
 H          3.6951334699       -1.0215519862       -2.8339410666
 H          6.0091733989       -0.2030241767       -2.5385265119
 H          6.5245450322        1.4493040804       -0.7778742592
 H          4.6803393499        2.2799760853        0.6976128027
 H          1.5640632509        0.8941906685        2.9005158075
 H          3.8717253996       -1.2877912634        1.4183116047
 H          3.3026408770       -3.5192698200        0.5012238773
 H          0.9547582810       -4.1580547637        0.1710999374
 H         -1.8351553692       -2.5362603496        1.7051248346
 C         -1.6064254801       -3.9641869899        0.1603819191
 C         -2.8001353776       -4.1650166126       -0.7236379639
 C         -1.4191441953       -4.2869082601       -1.2905609089
 H         -1.0609568399       -5.2722433896       -1.5508370177
 H         -1.0536398000       -3.5028186239       -1.9337537783
 H         -3.3894464141       -5.0607818078       -0.5969712472
 H         -3.3815581443       -3.2909003249       -0.9800922563
 H         -1.3942785559       -4.7613883509        0.8664850837
