  62
        -98.94760238
 C         -0.7734465890       -1.2672979584        0.0583693744
 C         -1.4935170434       -0.6036055832        1.0790481463
 C         -2.4146370219        0.4494918271        0.6319592409
 C         -2.4684438827        0.7639010844       -0.6752820880
 C         -3.4262274671        1.7468684048       -1.2819801830
 C         -4.7225905163        1.0506575979       -1.7228677562
 C         -5.3357819611        0.1428256835       -0.6565256318
 H         -6.2574560824       -0.2699826078       -1.0725301172
 H         -4.6627083292       -0.6978063168       -0.4725932614
 C         -5.6456517428        0.8430373339        0.6739611317
 H         -5.6706465492        1.9233830179        0.5273978013
 H         -6.6399778186        0.5381952137        1.0070616937
 C         -4.6745892705        0.5084353095        1.8078152495
 H         -5.1028464579        0.8777349590        2.7435876887
 H         -4.5767143587       -0.5763197559        1.8995245809
 C         -3.2699117555        1.1109325524        1.6757010459
 H         -3.3529113519        2.1834073259        1.4903337722
 H         -2.7519634895        0.9625614698        2.6279291235
 H         -4.5055595526        0.4418926208       -2.6035139955
 H         -5.4456803682        1.8165151783       -2.0090683071
 H         -3.6502579905        2.5277381454       -0.5585179131
 H         -2.9528523686        2.1915701149       -2.1580110384
 O         -1.6901590708        0.1677952865       -1.6134162724
 C         -0.8512105143       -0.8846678004       -1.2808255999
 O         -0.2400803341       -1.3803323949       -2.2457597064
 H          1.5351024940       -0.1957259207        0.4764741476
 C          2.1007465478       -0.9993083758        0.0276646744
 C          1.5166672559       -2.2538729845       -0.0916276914
 C          2.2609312822       -3.2819599947       -0.6562534471
 C          3.5503675768       -3.0490187308       -1.1015755221
 C          4.1249309984       -1.7973927570       -0.9871224303
 C          3.3905358729       -0.7623070827       -0.4176031673
 N          3.9314122176        0.5245484905       -0.3223028277
 S          3.4033779141        1.6326577433        0.8000062651
 O          4.4175020333        2.6660803608        0.7768218604
 O          3.1579397400        1.0257702652        2.0877424323
 C          1.9005845084        2.3005990578        0.1210128341
 C          0.8220606792        2.5215432063        0.9533784080
 C         -0.3139211044        3.1207013397        0.4343408128
 C         -0.3533693741        3.4823167407       -0.9027272469
 C          0.7325564863        3.2403261505       -1.7294373286
 C          1.8746629163        2.6494007487       -1.2143558796
 H          2.7401456440        2.4551963812       -1.8257547375
 H          0.6938506814        3.5132555255       -2.7717786490
 H         -1.2357906829        3.9570021764       -1.3010280273
 H         -1.1589617957        3.3024925620        1.0781361396
 H          0.8868911221        2.2140549487        1.9857489076
 H          4.9067442680        0.6193411242       -0.5598649654
 H          5.1289004035       -1.6156527649       -1.3387232958
 H          4.1164539798       -3.8548753228       -1.5435726689
 H          1.8309005151       -4.2652556200       -0.7530907909
 C          0.1123919424       -2.4426514226        0.4245578706
 H          0.1530950864       -2.4508152582        1.5249047884
 C         -0.5320661998       -3.7315613745       -0.0472225653
 C         -0.3451842252       -5.0045103275        0.7215684730
 C         -1.6686301982       -4.3025162599        0.7448581106
 H         -2.4988831369       -4.7437992728        0.2139602177
 H         -1.9549976282       -3.7781658326        1.6450345165
 H         -0.2691159441       -5.9319020755        0.1740272222
 H          0.2629614880       -4.9659522073        1.6127736259
 H         -0.5972285262       -3.7890259354       -1.1284508360
 O         -1.3836002967       -0.8887905422        2.3031599617
