  62
        -98.93318374
 C         -2.2835495199       -0.7230694873        0.1419961072
 C         -2.4787433444        0.6577678001        0.3983163333
 C         -3.6709108345        1.2870895269       -0.1949907745
 C         -4.4933179265        0.5370990223       -0.9485376166
 C         -5.7791784446        0.9566872055       -1.6058520665
 C         -6.9807463781        0.6528253216       -0.6948886342
 C         -7.3275148613        1.7561814456        0.3038208387
 H         -7.7532873633        2.6060244001       -0.2336372055
 H         -8.1036610095        1.3640935805        0.9649889117
 C         -6.1596953333        2.2545575323        1.1590141634
 H         -6.5751913514        2.7352980773        2.0468328898
 H         -5.5645245685        1.4056696315        1.5006603414
 C         -5.2599837104        3.2599131173        0.4248038991
 H         -5.7575910495        3.5835640079       -0.4890742503
 H         -5.1350715408        4.1521391731        1.0419543753
 C         -3.8491031065        2.7531629081        0.0922882280
 H         -3.1817307790        2.9520354660        0.9370581468
 H         -3.4540000477        3.3245416021       -0.7546361818
 H         -7.8580164765        0.4752890870       -1.3201256598
 H         -6.7676627190       -0.2755284659       -0.1589420822
 H         -5.7477115598        2.0069780357       -1.8796082209
 H         -5.8718010739        0.3581192742       -2.5143727106
 O         -4.2691582326       -0.7847303823       -1.1739131863
 C         -3.1771582332       -1.4510784829       -0.6439524973
 O         -3.1398517297       -2.6590173023       -0.9470642989
 O         -1.6918739430        1.3401107043        1.1107412040
 C         -1.0528028231       -1.3693779075        0.7551817142
 C          0.0451544031       -1.5275437362       -0.2701583398
 C         -0.0225767183       -2.4885680312       -1.2741428568
 C          1.0075003017       -2.6178658119       -2.1873708885
 C          2.1277544383       -1.8095271055       -2.1093572107
 C          2.1991696580       -0.8377705405       -1.1181373123
 C          1.1573740832       -0.6996241512       -0.2114954930
 H          1.2225278887        0.0655846645        0.5489451150
 N          3.3103845696        0.0157905722       -1.0307482165
 S          3.8366742652        0.4924646550        0.5012404045
 O          3.7911145699       -0.6309986971        1.4099175524
 O          3.1078519547        1.6696391645        0.9013504688
 C          5.5287484182        0.9260290854        0.1411579534
 C          5.7995316973        2.1785965639       -0.3767118771
 C          7.1100871724        2.5062378818       -0.6860775181
 C          8.1220198334        1.5813271004       -0.4747173227
 C          7.8351613207        0.3290339744        0.0475356068
 C          6.5264377794       -0.0056404254        0.3581306618
 H          6.2571880794       -0.9630415093        0.7744844778
 H          8.6243602541       -0.3862116408        0.2143577147
 H          9.1411401894        1.8396610394       -0.7153720738
 H          7.3371741232        3.4800923848       -1.0889228589
 H          4.9816792125        2.8668144274       -0.5141344055
 H          4.0788912140       -0.2772755981       -1.6184812203
 H          2.9367339591       -1.9224483170       -2.8151739291
 H          0.9424242717       -3.3663330076       -2.9627167989
 H         -0.8967521296       -3.1166261161       -1.3422930624
 H         -0.6958099451       -0.6498867481        1.5054520276
 C         -1.3430081582       -2.6832649865        1.4543701851
 C         -0.3265384019       -3.2248080879        2.4129535366
 C         -1.6276772482       -2.6852053860        2.9247338112
 H         -2.3604431419       -3.3803874074        3.3062652876
 H         -1.6185285272       -1.7342741952        3.4378278880
 H         -0.1644560978       -4.2912517802        2.4440649316
 H          0.5673228519       -2.6393976328        2.5740443151
 H         -1.8871842949       -3.3900480619        0.8420135572
