  62
        -98.94451195
 C          1.9392617120        1.3440689789        0.0925685012
 C          2.2098465243        0.3861832902       -0.9146468786
 C          3.5812976167       -0.1400475865       -0.9467307491
 C          4.4961480388        0.2984093697       -0.0642396273
 C          5.9373141303       -0.1269494055        0.0092630437
 C          6.1675260490       -1.4249021308        0.7952945081
 C          5.7073199309       -2.7020389432        0.0913520166
 H          6.1337577419       -2.7370254501       -0.9117144086
 H          6.1217282179       -3.5431605965        0.6506238975
 C          4.1831590393       -2.8666484126        0.0111247411
 H          3.7052795534       -2.1974905312        0.7307223544
 H          3.9109939435       -3.8858463440        0.2952013821
 C          3.5902612260       -2.6091059904       -1.3742082091
 H          2.5047855497       -2.7193100881       -1.3066236001
 H          3.9605506996       -3.3596975809       -2.0761711923
 C          3.8935015689       -1.2165634273       -1.9425475155
 H          4.9362941581       -1.1568900913       -2.2529433991
 H          3.2580660638       -1.0573516664       -2.8171161909
 H          7.2406704312       -1.5059562975        0.9829933401
 H          5.6665219881       -1.3416280290        1.7625901679
 H          6.3400738331       -0.2342651775       -0.9983349263
 H          6.4731426093        0.6799205687        0.5139070022
 O          4.2037108809        1.2288638573        0.8814915922
 C          2.9294801492        1.7557304678        0.9925062526
 O          2.8023300685        2.5846162282        1.9156900884
 O          1.3710996515       -0.0268590072       -1.7608103257
 C          0.5819474582        2.0044877571        0.2830207121
 C         -0.3912578702        1.0942778752        0.9930424132
 C         -0.9344518383        1.4482658693        2.2222194433
 C         -1.8545046726        0.6267885587        2.8510411772
 C         -2.2518004046       -0.5624476160        2.2667923061
 C         -1.7085295670       -0.9268595298        1.0418719622
 C         -0.7920623712       -0.0998486480        0.4106302415
 H         -0.3728734975       -0.3899195932       -0.5414216785
 N         -2.1241798708       -2.1280760578        0.4270025481
 S         -3.7652596741       -2.2031040558        0.0857144330
 O         -4.4859642073       -2.5139331635        1.2946418964
 O         -3.9009214755       -3.1532278174       -0.9952920115
 C         -4.1708226654       -0.5544605117       -0.4606536562
 C         -4.8492744529        0.3013677030        0.3826019920
 C         -5.0775559615        1.6044080802       -0.0295127335
 C         -4.6207534831        2.0274429044       -1.2677610509
 C         -3.9413154077        1.1547577075       -2.1038802202
 C         -3.7088340188       -0.1484659380       -1.6967894888
 H         -3.1856742176       -0.8546601950       -2.3220479851
 H         -3.5863040091        1.4845650110       -3.0673303762
 H         -4.7958136387        3.0438186489       -1.5839998831
 H         -5.6050772338        2.2861915699        0.6177517860
 H         -5.1861878923       -0.0685304396        1.3369386086
 H         -1.5930268820       -2.3378788183       -0.4068536041
 H         -2.9739219076       -1.2119262620        2.7348881709
 H         -2.2672469376        0.9158669903        3.8054595058
 H         -0.6229552023        2.3711950455        2.6892983478
 H          0.7663710587        2.8689760606        0.9341584279
 C         -0.0211606173        2.5041254775       -1.0170923446
 C         -1.0714501619        3.5704376348       -0.9651451068
 C          0.2964078775        3.8897732545       -1.4881687234
 H          0.4211712639        4.0574267292       -2.5474204823
 H          0.9529103103        4.4883725905       -0.8731031853
 H         -1.8907504406        3.5179389327       -1.6646210882
 H         -1.3450897556        3.9549721171        0.0054485983
 H         -0.1200893366        1.7333183377       -1.7694216521
