  62
        -98.94097455
 C         -1.8942601298       -0.1456142609        0.6385917599
 C         -2.9736191297        0.6356425186        1.1261112612
 C         -4.3175147498        0.2041047591        0.7278906110
 C         -4.4628005300       -0.8722152399       -0.0656334903
 C         -5.7673084302       -1.4529280993       -0.5401046107
 C         -6.3430959005       -0.7621181877       -1.7839844297
 C         -6.9219418904        0.6330597320       -1.5448813778
 H         -7.4821286606        0.9049437131       -2.4417515073
 H         -7.6315017301        0.5939042810       -0.7177899977
 C         -5.8696624102        1.7171264716       -1.2728406068
 H         -4.8883314503        1.3593938620       -1.5930722574
 H         -6.0973069904        2.6033923324       -1.8693912556
 C         -5.7820133898        2.1637326098        0.1865339138
 H         -6.7177881697        2.6447734495        0.4795166346
 H         -4.9819667498        2.9034063297        0.2717369145
 C         -5.4851050896        1.0300947486        1.1767409323
 H         -5.2267248494        1.4757978174        2.1404657328
 H         -6.3668480096        0.4028362785        1.3065376618
 H         -5.5618303307       -0.7075526768       -2.5457322398
 H         -7.1401059006       -1.4011668672       -2.1711869802
 H         -5.5700613903       -2.4982746290       -0.7874675220
 H         -6.4988093500       -1.4192188802        0.2679002796
 O         -3.4030363402       -1.5858200394       -0.5277054714
 C         -2.0948404801       -1.2355363198       -0.2098196113
 O         -1.2389685503       -1.9660329092       -0.7420714025
 O         -2.8185332694        1.6483981377        1.8584698724
 C         -0.4913680097        0.2804584086        1.0324031101
 C          0.4171656700        0.2857135300       -0.1706165901
 C          0.1131378297        1.1353196613       -1.2321841490
 C          0.9029441695        1.1650451527       -2.3639485592
 C          2.0294439194        0.3651768727       -2.4526937705
 C          2.3453884696       -0.4811020286       -1.3983438616
 C          1.5405588999       -0.5189973199       -0.2671332814
 H          1.7946571001       -1.2098109509        0.5187413177
 N          3.4834407296       -1.3061350386       -1.4570309429
 S          4.5657354599       -1.2838123502       -0.1825528432
 O          5.7670303197       -1.8937954496       -0.7080048242
 O          3.9886489402       -1.9074147916        0.9797686762
 C          4.8446051701        0.4524162594        0.1164360589
 C          4.0627401803        1.1196475983        1.0376682099
 C          4.2312080804        2.4864814981        1.1939332815
 C          5.1740650803        3.1585121290        0.4315099721
 C          5.9565909000        2.4731506601       -0.4855478289
 C          5.7876230399        1.1082166903       -0.6510061306
 H          6.3786920997        0.5358600712       -1.3475794314
 H          6.6926966799        2.9981074408       -1.0727989585
 H          5.3006534104        4.2223987289        0.5558060134
 H          3.6230999507        3.0196734473        1.9071983924
 H          3.3440466505        0.5621843977        1.6155201994
 H          3.9791530993       -1.2605159375       -2.3356618130
 H          2.6493714192        0.3853990738       -3.3362812706
 H          0.6460595693        1.8201760137       -3.1826561083
 H         -0.7652283002        1.7627038413       -1.1617321980
 H         -0.6112054296        1.3240161682        1.3700748714
 C          0.0810344906       -0.4908552629        2.2119937390
 C         -0.8085879292       -1.0920581141        3.2573515285
 C         -0.0348139895       -1.9796435930        2.3314493272
 H          0.8105362206       -2.5275739036        2.7230001863
 H         -0.5664247597       -2.5033630421        1.5522876567
 H         -0.5006888789       -1.0301871654        4.2903236985
 H         -1.8764146492       -1.0129675339        3.1135855289
 H          1.0068440507       -0.0524114634        2.5736454693
