  62
        -98.94358556
 C         -2.5593991882       -0.0104314082        0.1500458778
 C         -2.4298388053        1.1257186261        0.9874314368
 C         -1.9709582991        2.3600331436        0.3432737281
 C         -1.6978647794        2.3605794968       -0.9736633781
 C         -1.2157153670        3.5355508847       -1.7800443579
 C          0.3045699933        3.7343279084       -1.7118930580
 C          0.8198685141        4.3155497512       -0.3946353528
 H          1.8510801546        4.6315913216       -0.5638377160
 H          0.2423076868        5.2043746864       -0.1369404091
 C          0.7978739741        3.3258018161        0.7784176158
 H          0.7242659845        2.3038855365        0.3968510210
 H          1.7437216708        3.3807045256        1.3237338977
 C         -0.3182547012        3.5610452282        1.7969788005
 H         -0.2608999581        2.7640670825        2.5434601912
 H         -0.1546170430        4.5142116834        2.3060363244
 C         -1.7350888277        3.5614995502        1.2080915107
 H         -1.9061923217        4.4769168989        0.6415686182
 H         -2.4481804121        3.5209663412        2.0355694388
 H          0.7875261245        2.7705083657       -1.8928191275
 H          0.5846376834        4.4118905142       -2.5220253358
 H         -1.7218634055        4.4438069664       -1.4514572880
 H         -1.4927078458        3.3353634621       -2.8173198328
 O         -1.8481970559        1.2565727909       -1.7486920967
 C         -2.2154370260        0.0349947462       -1.2030305539
 O         -2.2179088315       -0.8989923063       -2.0272940235
 O         -2.6810715871        1.1056800292        2.2238287572
 C         -2.8821435160       -1.3413336081        0.8112229026
 C         -1.8074835692       -2.3233793763        0.4163819213
 C         -2.0391846236       -3.5513777114       -0.1859507142
 C         -0.9736615038       -4.3376024199       -0.5921993503
 C          0.3307391972       -3.9097923442       -0.4303109888
 C          0.5717986584       -2.6862988515        0.1867487026
 C         -0.4934711575       -1.9258071376        0.6322717977
 H         -0.2993167920       -0.9758506021        1.1106643914
 N          1.8815879418       -2.2085658422        0.3768995457
 S          2.1122690273       -0.5335418208        0.3551810162
 O          1.8128420570       -0.0184975199        1.6682874151
 O          1.4079789874        0.0681754614       -0.7543741133
 C          3.8731061150       -0.4636659757        0.0827541521
 C          4.3587852143       -0.1845544291       -1.1802050415
 C          5.7301919338       -0.1677991504       -1.3828053333
 C          6.5872110087       -0.4324973322       -0.3253271302
 C          6.0848205693       -0.7099142021        0.9376296776
 C          4.7151530449       -0.7260528090        1.1471947323
 H          4.2775255356       -0.9264514219        2.1111504370
 H          6.7542377745       -0.9124846094        1.7579487920
 H          7.6535784588       -0.4198686810       -0.4860761177
 H          6.1228360705        0.0513545562       -2.3626225737
 H          3.6532794547        0.0198630163       -1.9698657801
 H          2.5597209939       -2.6858610868       -0.2014058887
 H          1.1560479636       -4.5091081831       -0.7836903324
 H         -1.1644395883       -5.2870800859       -1.0692947912
 H         -3.0497790428       -3.8776538433       -0.3694196087
 H         -2.7752046637       -1.1371554178        1.8908725486
 C         -4.2990007931       -1.8511276936        0.6085239287
 C         -5.4232202746       -0.9002504029        0.3278594714
 C         -4.9738768116       -1.8618809863       -0.7289351119
 H         -5.6189544239       -2.6952609402       -0.9665252033
 H         -4.4177307867       -1.4830860483       -1.5712208475
 H         -6.3732439000       -1.0694224646        0.8122279102
 H         -5.1717676062        0.1438121150        0.2074286571
 H         -4.5273810493       -2.6787305911        1.2735659032
