  62
        -98.93722768
 C         -1.9885288597       -0.5454749301        0.1802155405
 C         -2.6826029196        0.6878091999        0.2695948704
 C         -4.0650363796        0.7239895300       -0.2368522696
 C         -4.6075799196       -0.3988092800       -0.7431855896
 C         -5.9643991997       -0.6653643199       -1.3610851096
 C         -7.0916341096        0.3561151002       -1.2386825797
 C         -7.6456543896        0.5280501904        0.1755775503
 H         -8.3589951695        1.3549893704        0.1661286403
 H         -8.1917710897       -0.3791187696        0.4462633104
 C         -6.6066956696        0.7803139404        1.2652832003
 H         -7.1353015696        0.8607129705        2.2190667103
 H         -5.9369821697       -0.0787628397        1.3405721604
 C         -5.7705320495        2.0464272903        1.0911030103
 H         -5.1837722895        2.1826610403        2.0037849303
 H         -6.4288445294        2.9111050403        0.9859409602
 C         -4.7874774694        2.0325328601       -0.0917102497
 H         -5.2836240694        2.3028281301       -1.0208674898
 H         -4.0184742294        2.7868309200        0.0997990002
 H         -6.7779811995        1.3127336902       -1.6461004897
 H         -7.9083376196       -0.0038027097       -1.8703159496
 H         -5.7734282997       -0.8448901300       -2.4248366996
 H         -6.2997618298       -1.6204187798       -0.9442787095
 O         -3.9020783698       -1.5632902300       -0.8101069895
 C         -2.5942730998       -1.6761054501       -0.3651046294
 O         -2.1185689599       -2.8175093502       -0.5195382893
 H          1.3482129205        1.3328011996        0.5223341304
 C          1.3742228804        0.6439916595       -0.3083866695
 C          0.4535214803       -0.3905633704       -0.3869577895
 C          0.5108797703       -1.2570203405       -1.4742811694
 C          1.4629468903       -1.0795383406       -2.4610204094
 C          2.3898436604       -0.0550472307       -2.3715907094
 C          2.3465835205        0.8098819194       -1.2857505595
 N          3.2851776006        1.8522917193       -1.1486717196
 S          4.2520598505        1.8471590493        0.2198120505
 O          3.4400532805        2.0226209695        1.3954081604
 O          5.2597445406        2.8536569192       -0.0264304696
 C          4.9984919704        0.2263256592        0.2157400706
 C          6.2470044104        0.0692526091       -0.3540551794
 C          6.7961232703       -1.2005980610       -0.4280752093
 C          6.0843973602       -2.2885969309        0.0542725508
 C          4.8304469602       -2.1147236607        0.6195516407
 C          4.2784899603       -0.8462029607        0.7042023606
 H          3.3067523203       -0.6786339905        1.1390582406
 H          4.2745925201       -2.9602298306        0.9918197908
 H          6.5085669801       -3.2782103009       -0.0092253991
 H          7.7724823603       -1.3383261411       -0.8640158193
 H          6.7645132205        0.9435369290       -0.7147658194
 H          3.8634246806        1.9864839892       -1.9667694295
 H          3.1378678504        0.0773728192       -3.1387708494
 H          1.4910096103       -1.7532660207       -3.3038527793
 H         -0.2020548798       -2.0644285604       -1.5396972094
 C         -0.5669484497       -0.5654291902        0.7125411805
 H         -0.4954110696        0.3130213098        1.3688941205
 C         -0.2365573198       -1.7985279502        1.5316779406
 C          0.8402096302       -1.7093456402        2.5698251406
 C         -0.5951292098       -1.8304168801        2.9852903806
 H         -0.9352547099       -2.7623748300        3.4109121507
 H         -1.0807486998       -0.9586361100        3.3996965005
 H          1.4889631601       -2.5592878703        2.7161054807
 H          1.3250831703       -0.7537355603        2.7111052806
 H         -0.3303771899       -2.7221125502        0.9756377007
 O         -2.1635171995        1.7287811599        0.7568713503
