  62
        -98.94670569
 C         -1.9944315750       -1.4513685178       -0.1033444328
 C         -1.7181276335       -0.2069269131       -0.7165901776
 C         -2.8713778668        0.6839716414       -0.9052970652
 C         -4.0953322318        0.2646113403       -0.5359048407
 C         -5.3450157730        1.0913492634       -0.6192765598
 C         -5.5849093789        1.8662447537        0.6843749188
 C         -4.3562662385        2.6225745217        1.1902356642
 H         -4.6532060333        3.1525094580        2.0978807787
 H         -3.5867641649        1.9019089002        1.4765086594
 C         -3.7654925091        3.6215654004        0.1854628672
 H         -3.5439131012        4.5538009917        0.7091417044
 H         -4.5021027592        3.8505192799       -0.5854870247
 C         -2.4650369383        3.1620140605       -0.4767334954
 H         -2.0249182900        4.0214673518       -0.9898046553
 H         -1.7593418007        2.8370029891        0.2924510584
 C         -2.6068828214        2.0349942051       -1.5078456443
 H         -3.3804412270        2.2939663882       -2.2334560634
 H         -1.6548948553        1.9435882327       -2.0394465320
 H         -5.8917029357        1.1569090225        1.4566080400
 H         -6.4055887217        2.5675417026        0.5228364067
 H         -5.2622414257        1.7826333719       -1.4556651458
 H         -6.1894507136        0.4227899907       -0.7949021755
 O         -4.3273220892       -0.9568096849        0.0105093758
 C         -3.2850809152       -1.8348571805        0.2603583141
 O         -3.6291919094       -2.9046292103        0.8021857963
 H          1.8694984923       -2.1138094324       -0.2614130442
 C          1.5242531002       -1.6726817393        0.6580089800
 C          0.1887788161       -1.7366232474        1.0211170897
 C         -0.2051740134       -1.1485831616        2.2215275842
 C          0.7107139529       -0.5028932872        3.0282657163
 C          2.0401366685       -0.4207792957        2.6502807349
 C          2.4453113885       -1.0082897350        1.4588687902
 N          3.7945162770       -0.9637495242        1.0604819745
 S          4.2114159455       -0.3327499383       -0.4342625425
 O          3.5813990269       -1.0919383153       -1.4820074728
 O          5.6586669189       -0.3256552814       -0.4322333453
 C          3.6151329286        1.3485464962       -0.4043581275
 C          2.2735715461        1.6019389697       -0.6073512551
 C          1.8258271103        2.9117584386       -0.5216166424
 C          2.7144216632        3.9363846981       -0.2370454763
 C          4.0590939275        3.6628334883       -0.0348935223
 C          4.5144041042        2.3571711421       -0.1137323393
 H          5.5507150088        2.0976676114        0.0317140496
 H          4.7504989831        4.4604361087        0.1848673182
 H          2.3566168482        4.9520640381       -0.1735392591
 H          0.7777732370        3.1121802813       -0.6788281778
 H          1.5896232848        0.7982111123       -0.8295148570
 H          4.4109155286       -0.5780606838        1.7624371024
 H          2.7577090367        0.0897573170        3.2747419805
 H          0.3881107560       -0.0529136127        3.9550747596
 H         -1.2463146194       -1.2062645652        2.5105838607
 C         -0.8583668472       -2.4196003169        0.1750980536
 H         -1.2935400822       -3.2408677025        0.7632003317
 C         -0.3185870903       -2.9856194731       -1.1212803065
 C          0.3323825606       -4.3348120934       -1.1374665304
 C         -1.0203063669       -4.1473052521       -1.7547623855
 H         -1.1059688140       -4.1739164705       -2.8307873940
 H         -1.8803851637       -4.5482661131       -1.2379354352
 H          0.3927200299       -4.8720008622       -0.2028610057
 H          1.1796791598       -4.4883281532       -1.7889993440
 H          0.0783586959       -2.2233695085       -1.7826659065
 O         -0.5680035489        0.1473374674       -1.0833199411
