  62
        -98.94175898
 C         -1.9198365604       -1.0931755695       -0.1760027288
 C         -2.1259985301        0.3057588704       -0.2697491105
 C         -3.3661657800        0.8104058414        0.3390334389
 C         -4.1962984502       -0.0297503177        0.9808475199
 C         -5.4766146701        0.3442838234        1.6768622994
 C         -6.6906902901        0.4410073025        0.7427053693
 C         -6.7055562599        1.6588387414       -0.1821718622
 H         -7.7051034398        1.7179207110       -0.6174927823
 H         -6.5541659497        2.5634299521        0.4077493667
 C         -5.6749297899        1.6037374698       -1.3184727021
 H         -5.3231402201        0.5766919496       -1.4407067109
 H         -6.1527181698        1.8921731587       -2.2574778125
 C         -4.4675364297        2.5208582398       -1.1238917132
 H         -4.7940981795        3.5631489299       -1.1328449945
 H         -3.7860336597        2.3742514686       -1.9656423531
 C         -3.6839301597        2.2659152812        0.1701843871
 H         -2.7374962896        2.8090375210        0.1103351264
 H         -4.2445307597        2.6353070324        1.0286768066
 H         -6.7447740503       -0.4717729782        0.1448085704
 H         -7.5828798801        0.4787584534        1.3719976492
 H         -5.6698893003       -0.4395824657        2.4124544504
 H         -5.3452313099        1.2897488540        2.2041649083
 O         -3.9417843504       -1.3606851376        1.0894012815
 C         -2.8227685405       -1.9216901085        0.4983500922
 O         -2.7398539508       -3.1583519884        0.6399385237
 O         -1.3302660400        1.1127067796       -0.8163290915
 C         -0.7270800905       -1.8066014105       -0.7939990979
 C          0.4848732195       -1.7481002896        0.0991918020
 C          1.2052331893       -2.8974304794        0.4018699834
 C          2.3319752893       -2.8331587286        1.2038450533
 C          2.7639152895       -1.6237209681        1.7181732219
 C          2.0500490497       -0.4696391983        1.4216774404
 C          0.9212844597       -0.5365668791        0.6179419405
 H          0.3755875099        0.3657315407        0.3849168194
 N          2.4812809800        0.7725629922        1.9319670289
 S          4.0312488101        1.2581876514        1.5185659283
 O          4.9840870199        0.4344477621        2.2189701093
 O          4.0812222303        2.6743714418        1.8005192466
 C          4.1437637700        0.9669659693       -0.2363862313
 C          4.6308054698       -0.2402187714       -0.6963866798
 C          4.6402783497       -0.4802295731       -2.0611459595
 C          4.1674328699        0.4848420460       -2.9366852207
 C          3.6859829202        1.6940981966       -2.4587637022
 C          3.6659742402        1.9370582283       -1.0950045025
 H          3.2992485804        2.8639435889       -0.6835639236
 H          3.3180241703        2.4434337559       -3.1409694231
 H          4.1716895199        0.2930797847       -3.9977568105
 H          5.0124543796       -1.4197588836       -2.4361937284
 H          4.9966416996       -0.9611672906        0.0157772411
 H          1.8306029701        1.5201526221        1.7343729080
 H          3.6418695195       -1.5535651075        2.3399091818
 H          2.8788281591       -3.7349379785        1.4335542944
 H          0.8692455591       -3.8479219698        0.0138690746
 H         -1.0337201207       -2.8619393905       -0.8637509467
 C         -0.4326911804       -1.3321449123       -2.2124329885
 C          0.7419504097       -0.4833655230       -2.5831672295
 C          0.7102831995       -1.9258775834       -2.9821516778
 H          0.5586229894       -2.1768414347       -4.0207738275
 H          1.3644834893       -2.6017095829       -2.4525342770
 H          0.5914618799        0.2721577361       -3.3386523305
 H          1.4263720398       -0.1849671221       -1.8052301599
 H         -1.3484156704       -1.1497020128       -2.7665759787
