  62
        -98.94187429
 C         -2.7685497141       -0.2931785635       -0.2740349182
 C         -2.0099544987        0.5332945203       -1.1385096403
 C         -2.0226001803        1.9711657265       -0.8321079410
 C         -2.7526494704        2.4266908926        0.2004515170
 C         -2.8178593064        3.8579237760        0.6463731325
 C         -1.7690121153        4.1590272500        1.7256181233
 C         -0.3570710355        3.6870425120        1.3760168745
 H          0.3006651394        4.0045476738        2.1886599402
 H         -0.3275369705        2.5941761526        1.3596270456
 C          0.1855337876        4.2218713641        0.0436841876
 H         -0.3832066907        5.1001409691       -0.2653985749
 H          1.2198859458        4.5378463530        0.1942263163
 C          0.1942751073        3.1915259004       -1.0872552943
 H          0.6415942954        2.2641816545       -0.7179137108
 H          0.8272488921        3.5741631263       -1.8929274992
 C         -1.1760245387        2.8632602563       -1.6953244921
 H         -1.7049432093        3.7878177660       -1.9355149213
 H         -1.0082404375        2.3111904429       -2.6246018892
 H         -1.7585794198        5.2363570957        1.9025781988
 H         -2.0725604634        3.6653342685        2.6518070321
 H         -2.6659017630        4.5073478681       -0.2135309213
 H         -3.8113594575        4.0424522135        1.0590110448
 O         -3.5011316896        1.6112958213        0.9864020290
 C         -3.4991660730        0.2422705952        0.7920158627
 O         -4.1936817797       -0.3890418144        1.6144234037
 O         -1.3460179846        0.1195878570       -2.1280248284
 C         -2.7930061250       -1.8138606535       -0.3729034852
 C         -1.5394649431       -2.3471494636        0.2789834635
 C         -1.5891332450       -3.0724050519        1.4634574001
 C         -0.4238767223       -3.4552226628        2.1064787755
 C          0.8134019961       -3.1040622273        1.5951482462
 C          0.8691225309       -2.3843560899        0.4102465540
 C         -0.2958310495       -2.0345354668       -0.2510127783
 H         -0.2381246165       -1.4580962931       -1.1623371369
 N          2.1272470240       -1.9408352506       -0.0837649452
 S          2.6362394266       -0.5939214542        0.8181313320
 O          2.9933483246       -1.0576591421        2.1352939314
 O          1.6380615501        0.4519707234        0.7627081300
 C          4.1004219022       -0.1028805387       -0.0717872688
 C          4.0075163587        0.8897584135       -1.0280728911
 C          5.1430580140        1.2415262388       -1.7409061747
 C          6.3433529064        0.5942514526       -1.4895528403
 C          6.4200189057       -0.4014109120       -0.5269403155
 C          5.2890521733       -0.7564695647        0.1905851142
 H          5.3009677863       -1.5168421931        0.9535721937
 H          7.3556894143       -0.9006716213       -0.3336555669
 H          7.2248815714        0.8697627923       -2.0465838826
 H          5.0855484367        2.0167742341       -2.4879311184
 H          3.0553114878        1.3714510487       -1.1867255058
 H          2.0267928742       -1.6293175491       -1.0437735532
 H          1.7271984986       -3.3499006454        2.1108728607
 H         -0.4805602947       -4.0141025161        3.0284823459
 H         -2.5505777140       -3.3082684372        1.8968442740
 H         -3.6519151964       -2.1396416745        0.2286980890
 C         -2.9699454635       -2.3337629157       -1.7848280818
 C         -3.4818974437       -3.7276814524       -1.9828443059
 C         -4.3537503179       -2.5545396036       -2.3137171077
 H         -4.5493011129       -2.3300296623       -3.3513821304
 H         -5.1810801850       -2.3312324500       -1.6556563293
 H         -3.0781381278       -4.3134700003       -2.7941548294
 H         -3.7202920258       -4.3024388323       -1.1006665048
 H         -2.2279652653       -1.9642994351       -2.4794669983
