  62
        -98.93909158
 C         -2.3327823914       -0.6862428886        0.1183657768
 C         -2.5538664020        0.7116031363        0.2368585326
 C         -3.7802280019        1.2369467513       -0.3755860816
 C         -4.6055240053        0.3903476534       -1.0173679716
 C         -5.9145936962        0.7738504871       -1.6428473280
 C         -7.0719912228        0.6171846894       -0.6466266533
 C         -6.8088323840        1.2659932969        0.7122919054
 H         -7.7029572552        1.1191744552        1.3219868956
 H         -5.9917017225        0.7367410070        1.2078598385
 C         -6.4748517150        2.7628599227        0.6468111916
 H         -6.7887179622        3.1711872500       -0.3144414433
 H         -7.0426528640        3.2826584303        1.4213241468
 C         -4.9995310339        3.0945500338        0.8795104457
 H         -4.6541310778        2.6097284861        1.7962577214
 H         -4.9126871021        4.1741914387        1.0287158165
 C         -4.0420136695        2.7120661142       -0.2563574006
 H         -4.4126561520        3.1145546257       -1.2013616065
 H         -3.0723695094        3.1719690755       -0.0435742672
 H         -7.9703408711        1.0497808465       -1.0905301042
 H         -7.2498068981       -0.4488118563       -0.4878272658
 H         -5.8565213775        1.8035046517       -1.9901702505
 H         -6.0915154966        0.1198331472       -2.4981866899
 O         -4.3564318200       -0.9371142980       -1.1253997336
 C         -3.2266046218       -1.5139956037       -0.5621257119
 O         -3.1604876538       -2.7449515770       -0.7450483458
 O         -1.7613311676        1.4864821300        0.8387854035
 C         -1.0684344888       -1.2313977006        0.7603337604
 C          0.0265332585       -1.4389223669       -0.2593786839
 C         -0.0594905138       -2.4290983013       -1.2332076727
 C          0.9713539015       -2.6111003060       -2.1364528730
 C          2.1106765378       -1.8279289560       -2.0769090263
 C          2.2012658109       -0.8291569327       -1.1147882692
 C          1.1581381471       -0.6373506069       -0.2194273320
 H          1.2389581261        0.1492293989        0.5171405788
 N          3.3329460669       -0.0015660533       -1.0428579951
 S          3.8612296095        0.4960757902        0.4820287800
 O          3.7783796855       -0.6045457079        1.4155817174
 O          3.1606566171        1.7006028690        0.8502588628
 C          5.5666698240        0.8766682243        0.1258982752
 C          6.5341426341       -0.0847075755        0.3501670851
 C          7.8535416478        0.2077008545        0.0422971944
 C          8.1808661494        1.4481895868       -0.4843393396
 C          7.1989585827        2.4032207572       -0.7029431401
 C          5.8778467785        2.1177923159       -0.3966237212
 H          5.0820901125        2.8302577490       -0.5399333949
 H          7.4575035757        3.3677911707       -1.1091561544
 H          9.2082676445        1.6733746259       -0.7230439495
 H          8.6195487989       -0.5311101569        0.2143875804
 H          6.2341865002       -1.0313161244        0.7702184844
 H          4.0971868947       -0.3279140708       -1.6184236416
 H          2.9199766029       -1.9820692256       -2.7745185379
 H          0.8922820241       -3.3818554941       -2.8883306470
 H         -0.9459993921       -3.0419840816       -1.2815958378
 H         -0.7297639097       -0.4388487837        1.4425325811
 C         -1.2884777513       -2.4946402537        1.5704605547
 C         -0.2342197222       -2.9078131788        2.5519550803
 C         -1.5524872516       -2.3886477863        3.0407633887
 H         -2.2459032656       -3.0832724836        3.4907164280
 H         -1.5811732611       -1.3993146024        3.4744241745
 H         -0.0217452678       -3.9596141711        2.6668670694
 H          0.6342194322       -2.2718499720        2.6486968564
 H         -1.8049847801       -3.2739745105        1.0259330282
