  62
        -98.94443523
 C          1.7967260162        0.6598733665       -0.0921504180
 C          2.9315729207        1.2754392227        0.4883864020
 C          4.2235075828        0.9340685790       -0.1165840859
 C          4.2661135920        0.1007608902       -1.1722077538
 C          5.5051566605       -0.3256765514       -1.9121028563
 C          6.2429513954       -1.5056951147       -1.2645908277
 C          6.9922436730       -1.1751558804        0.0269079548
 H          7.6348914071       -2.0288197778        0.2513628553
 H          7.6407963655       -0.3147915697       -0.1409420616
 C          6.0840689175       -0.9100841849        1.2357937975
 H          5.0831498598       -1.2969876871        1.0301802105
 H          6.4648023690       -1.4537756153        2.1033721915
 C          5.9743265352        0.5614005261        1.6354664964
 H          6.9492027624        0.9240567459        1.9685437438
 H          5.2813463600        0.6372883000        2.4772575219
 C          5.4655931108        1.4825454701        0.5187760460
 H          5.2136427437        2.4498071065        0.9601887747
 H          6.2430860359        1.6311196719       -0.2300659438
 H          6.9662878061       -1.8773416258       -1.9941027119
 H          5.5228580401       -2.3051136331       -1.0745022473
 H          6.1848506876        0.5213822150       -2.0087934878
 H          5.1816815827       -0.6281859218       -2.9104243186
 O          3.1490566778       -0.4529449728       -1.7159956839
 C          1.8919171436       -0.2076344193       -1.1799765219
 O          0.9638714885       -0.8071136189       -1.7558571338
 O          2.8670258074        2.0679125112        1.4659195429
 C          0.4271306688        0.9519966927        0.4923101454
 C         -0.2458212814       -0.3265581912        0.9243837228
 C          0.4707379685       -1.2352242313        1.6996732345
 C         -0.1045075200       -2.4208851606        2.1113614478
 C         -1.4087422414       -2.7250678917        1.7628221765
 C         -2.1396133959       -1.8187438007        1.0045977758
 C         -1.5605236548       -0.6229734771        0.5997933113
 H         -2.1402897356        0.0598261033        0.0022014833
 N         -3.4785188345       -2.0801927416        0.6912650601
 S         -4.2269202929       -1.4636193200       -0.6668218529
 O         -5.4367283320       -2.2515066679       -0.7854589668
 O         -3.3654087562       -1.4570460187       -1.8250467104
 C         -4.6732042448        0.2006680299       -0.2155487427
 C         -5.0711166469        0.4681595425        1.0793980465
 C         -5.4577326102        1.7578561504        1.4074317436
 C         -5.4506004690        2.7511133392        0.4401534766
 C         -5.0544138295        2.4651988036       -0.8572296947
 C         -4.6606811199        1.1783302071       -1.1904667048
 H         -4.3311650565        0.9151502782       -2.1834347799
 H         -5.0492635927        3.2379651455       -1.6097480097
 H         -5.7526827576        3.7539721340        0.6974728488
 H         -5.7641217976        1.9842683930        2.4159379577
 H         -5.0653934288       -0.3262850035        1.8065377462
 H         -3.8106232624       -3.0025757191        0.9295472658
 H         -1.8573494073       -3.6558518093        2.0747090083
 H          0.4674099670       -3.1192073921        2.7038988018
 H          1.4924339480       -1.0011455863        1.9667031775
 H          0.6201399092        1.5584194732        1.3903857345
 C         -0.3976706516        1.7730947169       -0.4762459268
 C         -1.4180691600        2.7421878120        0.0396791317
 C         -0.1454417499        3.2471869555       -0.5690664991
 H         -0.1857895612        3.7161634293       -1.5406952525
 H          0.6086612305        3.6607635141        0.0844735508
 H         -2.3375245647        2.8652048690       -0.5122208851
 H         -1.5334643894        2.8207061096        1.1099635705
 H         -0.6113352323        1.2408457921       -1.3975193054
