  62
        -98.93983401
 C         -0.7590407972       -1.4653594176       -0.0971140544
 C         -1.5810496031       -0.9069343397        0.9121545025
 C         -2.5999772038        0.0761969298        0.5004824672
 C         -2.6678235755        0.4240490410       -0.7976947557
 C         -3.6253067529        1.3760407436       -1.4667358919
 C         -5.0296785466        0.7793115259       -1.6459102500
 C         -5.5825771530        0.0648647875       -0.4157974789
 H         -6.5389013430       -0.3843570023       -0.6963922708
 H         -4.9096415518       -0.7501313481       -0.1439198438
 C         -5.8225686909        0.9556596532        0.8012083962
 H         -6.5002133536        1.7660453466        0.5239615596
 H         -6.3275951781        0.3441769843        1.5531862757
 C         -4.5723346372        1.5598005537        1.4462287070
 H         -4.8619028619        1.9250419848        2.4355417499
 H         -4.2217764961        2.4248691603        0.8892706153
 C         -3.4320098612        0.5695798955        1.6595682091
 H         -2.7158904416        0.9993400032        2.3691886181
 H         -3.8228571752       -0.3251839011        2.1570749146
 H         -5.7086949852        1.5812552236       -1.9411470510
 H         -4.9882242266        0.0551159205       -2.4633363481
 H         -3.6758685578        2.3126105306       -0.9186477921
 H         -3.2106480802        1.5926808674       -2.4541759801
 O         -1.8316601452       -0.1101233874       -1.7326784218
 C         -0.8745736482       -1.0651134882       -1.4284848129
 O         -0.2261613637       -1.4510798471       -2.4205176888
 O         -1.4832269421       -1.2329163029        2.1259578922
 C          0.2436022216       -2.5078276082        0.3575686301
 C          1.5893742114       -1.9082993656        0.6925141008
 C          2.2901929686       -2.3495860259        1.8100583991
 C          3.5388068380       -1.8368275955        2.1084400245
 C          4.1043096529       -0.8606303236        1.3084246197
 C          3.4097309764       -0.4076051554        0.1928769267
 C          2.1628968217       -0.9360094988       -0.1136165772
 H          1.6491763611       -0.5891374855       -0.9970767218
 N          3.9543265272        0.5905081843       -0.6292141199
 S          2.9555397432        1.7824739142       -1.2364797158
 O          2.2571480057        1.3218583567       -2.4081955765
 O          3.8409147535        2.9113416380       -1.4422353212
 C          1.8046338214        2.1707472630        0.0708764768
 C          2.3019975431        2.4664350218        1.3252379559
 C          1.4177756751        2.8114669092        2.3335923357
 C          0.0584561616        2.8726587728        2.0681506140
 C         -0.4240850666        2.5838783702        0.8021439346
 C          0.4547458292        2.2195794424       -0.2056542097
 H          0.1170301206        1.9680848295       -1.1995283397
 H         -1.4802543799        2.6326797698        0.5941003860
 H         -0.6306747052        3.1489466981        2.8505325140
 H          1.7895019677        3.0354482825        3.3203192670
 H          3.3652080859        2.4317077797        1.4973408561
 H          4.8351623216        0.9694898833       -0.3126944117
 H          5.0758234096       -0.4519290833        1.5401277703
 H          4.0727430746       -2.1909563296        2.9766136526
 H          1.8446236535       -3.0949948191        2.4510563311
 H         -0.1714630903       -2.9203511733        1.2881862201
 C          0.4323203048       -3.6472417208       -0.6263584968
 C          0.8273479204       -5.0017046581       -0.1228409397
 C         -0.5572026632       -4.7718707941       -0.6484853567
 H         -0.8309672749       -5.1958020260       -1.6028392965
 H         -1.3715333260       -4.7329765245        0.0605083756
 H          1.5113450620       -5.5892009153       -0.7156370333
 H          0.9463613962       -5.1294394882        0.9420432615
 H          0.8378130779       -3.3244841137       -1.5769269708
