  62
        -98.93819601
 C          2.6890942477        1.2231276651        0.2379368344
 C          3.0271581100        0.2572383569        1.2209051694
 C          4.1811454858       -0.5968069061        0.9256527390
 C          4.8657998689       -0.4151203331       -0.2179031681
 C          6.0786201971       -1.1895249272       -0.6573688060
 C          5.7507189527       -2.5184641752       -1.3518405863
 C          5.2367488097       -3.6251745358       -0.4300929325
 H          5.2568679912       -4.5540754591       -1.0035427425
 H          5.9230640959       -3.7458386970        0.4086821547
 C          3.8119231932       -3.4013885925        0.0958066592
 H          3.3108122300       -2.6473063689       -0.5157253019
 H          3.2378674828       -4.3253544901       -0.0033310093
 C          3.7362046579       -2.9772256928        1.5626465455
 H          4.1119216514       -3.7828395163        2.1974404100
 H          2.6863386264       -2.8091225962        1.8162433386
 C          4.5126938358       -1.6950838512        1.8900610057
 H          5.5844613567       -1.8926666095        1.8885972942
 H          4.2187961927       -1.3610087275        2.8881729213
 H          6.6675194517       -2.8704600630       -1.8303956822
 H          5.0166386272       -2.3294106300       -2.1384602687
 H          6.6137883261       -0.5535833632       -1.3658171839
 H          6.7255813726       -1.3753779796        0.2004284428
 O          4.5289106038        0.5384288917       -1.1237280883
 C          3.4202075865        1.3595408788       -0.9429870189
 O          3.2245377563        2.1440069130       -1.8883877031
 O          2.3933809535        0.1239035451        2.3025574386
 C          1.4750461810        2.0860845707        0.5325672201
 C          0.2304201237        1.4313133912       -0.0106603484
 C          0.1294559672        1.0757674683       -1.3525662591
 C         -1.0169074375        0.4675794724       -1.8299144660
 C         -2.0774242174        0.1914137496       -0.9837878402
 C         -1.9855497865        0.5371365853        0.3573107560
 C         -0.8363050378        1.1585018731        0.8321998614
 H         -0.7632431432        1.4159296310        1.8803601928
 N         -3.0418961484        0.2343168957        1.2280963916
 S         -4.6213037841        0.5387606726        0.7576053800
 O         -4.6943611760        1.6581771160       -0.1519152555
 O         -5.3610438390        0.6649237095        1.9939445556
 C         -5.1198613259       -0.9575347591       -0.0683528811
 C         -5.6729744841       -0.8936225346       -1.3321872001
 C         -6.0664221825       -2.0695557546       -1.9520208899
 C         -5.9015482217       -3.2818358535       -1.2999276096
 C         -5.3468759836       -3.3286138540       -0.0294750323
 C         -4.9529013597       -2.1567360435        0.5961738079
 H         -4.5205968357       -2.1516995923        1.5829074849
 H         -5.2198073420       -4.2732836524        0.4743818895
 H         -6.2067386602       -4.1958358418       -1.7845693592
 H         -6.4980629871       -2.0351134659       -2.9394475456
 H         -5.7765660329        0.0707116953       -1.8038872184
 H         -2.8802326079        0.5014048062        2.1878347199
 H         -2.9698689834       -0.2860340816       -1.3537501317
 H         -1.0847876529        0.2000202152       -2.8736098041
 H          0.9585887109        1.2837252951       -2.0123590012
 H          1.3944099050        2.0817501923        1.6314763555
 C          1.6355280236        3.5362321824        0.1000470934
 C          0.8330777903        4.1791498895       -0.9870519930
 C          0.5715864419        4.5373590895        0.4431610139
 H          0.8694489812        5.5113270939        0.8007252019
 H         -0.3374929395        4.1618547047        0.8899288289
 H          1.3360314149        4.8935386340       -1.6206166253
 H          0.0959754865        3.5852282497       -1.5038025989
 H          2.6630006182        3.8726480944        0.1933609278
