  62
        -98.94379188
 C          1.9009154427        1.0494140889        0.0597255493
 C          1.2910152831        1.8641127134       -0.9243268695
 C          0.2044840035        2.7458443186       -0.4648267730
 C         -0.1210230628        2.7669469034        0.8389734399
 C         -1.1510339496        3.6190563458        1.5373713502
 C         -2.5181299320        3.7829059640        0.8595678628
 C         -2.9973243463        2.5676642297        0.0520259548
 H         -2.3752246092        1.6967185003        0.2656472750
 H         -4.0158335448        2.3174976166        0.3552617925
 C         -3.0066153282        2.8186157364       -1.4575397079
 H         -3.6698190659        2.0890175380       -1.9293614345
 H         -3.4191392786        3.8124842817       -1.6480390693
 C         -1.6499688706        2.6952873318       -2.1508472653
 H         -1.7774514283        3.0011811029       -3.1927557129
 H         -1.3442414673        1.6448434108       -2.1665896470
 C         -0.5094540464        3.5220661612       -1.5325467288
 H          0.2302728618        3.7113195752       -2.3155379159
 H         -0.8739167398        4.4776402586       -1.1617320431
 H         -2.4994263030        4.6544208527        0.2065841542
 H         -3.2378927139        3.9982491050        1.6507858809
 H         -0.7151499346        4.6086290851        1.7028745900
 H         -1.2842809198        3.1579613071        2.5185235932
 O          0.5183450414        1.9914018245        1.7591476357
 C          1.5075439912        1.0881043549        1.3959755672
 O          1.9418864046        0.4036455429        2.3406776227
 O          1.6462639154        1.8620978931       -2.1336805015
 C          2.9536033373        0.0402387341       -0.3681673476
 C          2.3848738708       -1.3429964744       -0.1602427486
 C          2.9495253079       -2.3000390137        0.6715681051
 C          2.3241391414       -3.5221821689        0.8516413301
 C          1.1262357955       -3.8077725354        0.2231447033
 C          0.5573065981       -2.8606471301       -0.6226531060
 C          1.2005169890       -1.6496893102       -0.8213128184
 H          0.7622884249       -0.9224130080       -1.4897855754
 N         -0.6508601729       -3.1289101457       -1.2897775071
 S         -1.8804957212       -2.0000668755       -1.3654938117
 O         -2.9893146408       -2.7204188269       -1.9517752157
 O         -1.4372979424       -0.8259668618       -2.0695945336
 C         -2.2659701951       -1.6023862083        0.3283838880
 C         -3.3464535898       -2.2139239378        0.9338286900
 C         -3.6199819390       -1.9308982526        2.2621435475
 C         -2.8044095842       -1.0560640025        2.9644986507
 C         -1.7199999111       -0.4546218693        2.3450024960
 C         -1.4495995397       -0.7251851181        1.0129991413
 H         -0.6144967946       -0.2671751353        0.5050496746
 H         -1.0720443722        0.2198004707        2.8834069845
 H         -3.0123985281       -0.8388443751        4.0002524117
 H         -4.4642747613       -2.3942309041        2.7466819870
 H         -3.9533642714       -2.8854346034        0.3483657260
 H         -1.0326226954       -4.0448147441       -1.1016832850
 H          0.6340429975       -4.7556577942        0.3792227844
 H          2.7702566912       -4.2578960674        1.5033365442
 H          3.8712580461       -2.0866479715        1.1865991940
 H          3.0853424379        0.1969889607       -1.4488662990
 C          4.2752573112        0.2799765895        0.3270416245
 C          5.5436539381       -0.2258642580       -0.2905094661
 C          5.2498338074        1.2433663527       -0.2785378019
 H          5.8213603040        1.8800763188        0.3799303154
 H          4.9681551706        1.7181132263       -1.2073036065
 H          6.3218008742       -0.5974979246        0.3586342010
 H          5.4658146564       -0.7501679774       -1.2310321632
 H          4.1908766912        0.2704315173        1.4073670771
