  62
        -98.94878128
 C         -0.9417051689       -1.2843737965        0.0459394465
 C         -1.9116370592       -1.0323197013        1.0430091245
 C         -2.6392479719        0.2376865174        0.9250952913
 C         -2.3251794594        1.0834771684       -0.0731926761
 C         -3.0161829478        2.3903485131       -0.3338247350
 C         -4.1898753446        2.2144247425       -1.3072629750
 C         -5.1344851843        1.0728805046       -0.9317405412
 H         -5.9414715739        1.0622016586       -1.6674111233
 H         -4.6012734365        0.1240803401       -1.0241741412
 C         -5.7308897693        1.1811299462        0.4785595389
 H         -6.7987483871        0.9587606182        0.4258626329
 H         -5.6309836830        2.2028351894        0.8468322116
 C         -5.1261328600        0.2149007180        1.4990701968
 H         -5.7589739953        0.2213180102        2.3906299705
 H         -5.1404003221       -0.8006980053        1.0954365536
 C         -3.6950939139        0.5309264247        1.9533924922
 H         -3.6328426347        1.5697027910        2.2856266754
 H         -3.4667321224       -0.1129588241        2.8082262924
 H         -3.7870029352        2.0119435691       -2.3019985726
 H         -4.7475635465        3.1517608732       -1.3488094341
 H         -3.3700721217        2.8013244984        0.6098793867
 H         -2.2933677282        3.0821717959       -0.7687070433
 O         -1.3679691278        0.8194020440       -0.9975276960
 C         -0.6509264294       -0.3672710713       -0.9642990428
 O          0.1973697829       -0.4829794911       -1.8674201936
 H          1.0968721349       -0.5106128085        1.2795803720
 C          1.7970714593       -1.1837574848        0.8069621117
 C          1.3330940299       -2.3093465209        0.1396295300
 C          2.2630934340       -3.1655149301       -0.4391277405
 C          3.6166607223       -2.8896600850       -0.3599019530
 C          4.0717552016       -1.7519317150        0.2808150843
 C          3.1497202368       -0.8914526907        0.8658395601
 N          3.5689395504        0.2770600159        1.5228319085
 S          2.6747906268        1.6782186644        1.4086770407
 O          3.6012948638        2.7171419992        1.8137653058
 O          1.4740040942        1.5809461680        2.2029493167
 C          2.2554390372        1.9270644170       -0.3076254016
 C          3.1044639263        1.4992993087       -1.3075550594
 C          2.7751133158        1.7690868867       -2.6254682927
 C          1.6187741354        2.4716044780       -2.9208410144
 C          0.7832046243        2.9054685725       -1.9054768997
 C          1.1012542213        2.6288830518       -0.5865180498
 H          0.4675068036        2.9283488070        0.2343135376
 H         -0.1206637737        3.4459266226       -2.1377872597
 H          1.3617283279        2.6756755249       -3.9483015274
 H          3.4193616488        1.4240595556       -3.4180131809
 H          3.9999183593        0.9524794559       -1.0619223834
 H          4.5597218745        0.4659443663        1.4783134899
 H          5.1268920190       -1.5300893057        0.3319860916
 H          4.3268812012       -3.5641293606       -0.8131174437
 H          1.9257785943       -4.0497369671       -0.9546559271
 C         -0.1514219150       -2.5765675608        0.0954047045
 H         -0.4402410293       -3.0620176583        1.0406542173
 C         -0.5542445778       -3.4781215008       -1.0559334661
 C         -0.5991641002       -4.9664001358       -0.8834577570
 C         -1.8735018328       -4.1857236546       -0.9890411697
 H         -2.4614219951       -4.2704374331       -1.8906372433
 H         -2.4635746578       -4.0443109289       -0.0950173777
 H         -0.3136307400       -5.5910063605       -1.7165327088
 H         -0.3334816814       -5.3677254871        0.0829691905
 H         -0.2473847921       -3.0809139658       -2.0171160320
 O         -2.1572082877       -1.8327245423        1.9877816414
