  62
        -98.94173171
 C          2.2590956162       -0.7415056907       -0.0652024534
 C          3.4342909390       -1.0601696810       -0.7964466300
 C          4.3803107739        0.0384902269       -1.0276419831
 C          4.0672652287        1.2735141492       -0.5967640546
 C          4.9556544762        2.4765702350       -0.7209517073
 C          5.8549113888        2.6330848516        0.5134636765
 C          6.5854235679        1.3509956601        0.9132604281
 H          7.2112638938        1.5893643124        1.7759957236
 H          5.8521790284        0.6116329483        1.2437505983
 C          7.4540272914        0.7423389328       -0.1965298804
 H          7.6493520967        1.4902795481       -0.9657782825
 H          8.4177360452        0.4568994910        0.2303705422
 C          6.8659372367       -0.5113431556       -0.8467972375
 H          7.6465911750       -0.9774672704       -1.4536859465
 H          6.5838530736       -1.2280596639       -0.0712821286
 C          5.6534677211       -0.2836804241       -1.7583280045
 H          5.4615765590       -1.2166247709       -2.2963224376
 H          5.8841297404        0.4933719393       -2.4898798136
 H          6.5827814993        3.4211431384        0.3120714961
 H          5.2347315927        2.9507532818        1.3550559057
 H          4.3240108724        3.3616564575       -0.8147075169
 H          5.5649181750        2.3803194386       -1.6176426056
 O          2.9087940145        1.5558298167        0.0487676426
 C          1.9789438172        0.5639451649        0.3437103366
 O          0.9828754339        0.9882989493        0.9592526566
 O          3.6798797350       -2.2145322952       -1.2366131169
 C          1.2793458597       -1.8752029364        0.1885484476
 C         -0.1029600779       -1.4708495939       -0.2529638692
 C         -0.4269796817       -1.5096400773       -1.6058375184
 C         -1.6726047454       -1.1017800157       -2.0440451985
 C         -2.6164644407       -0.6367207304       -1.1447423473
 C         -2.2943458456       -0.5733207491        0.2038383278
 C         -1.0513819561       -1.0089764859        0.6448282793
 H         -0.8061380765       -0.9447644435        1.6934566346
 N         -3.2385242905       -0.0951022962        1.1264215200
 S         -4.1673683069        1.2444121688        0.7332862869
 O         -3.4886376852        2.1397682779       -0.1742116846
 O         -4.5747869352        1.8027860609        2.0047408252
 C         -5.5960884072        0.5359981650       -0.0635690814
 C         -6.0159779112        1.0243991183       -1.2852544037
 C         -7.1372806749        0.4681363187       -1.8812753663
 C         -7.8167301961       -0.5606770941       -1.2474963675
 C         -7.3843779466       -1.0381073712       -0.0191938293
 C         -6.2649532764       -0.4855797318        0.5820956724
 H         -5.8986395024       -0.8262473228        1.5359354327
 H         -7.9152626214       -1.8383152687        0.4708099081
 H         -8.6882257934       -0.9926442450       -1.7135452799
 H         -7.4746625487        0.8390354789       -2.8358109142
 H         -5.4530124767        1.8221032377       -1.7436904224
 H         -2.8767566450       -0.0158344793        2.0659500097
 H         -3.5838517625       -0.3018759750       -1.4814733564
 H         -1.9122242081       -1.1413880346       -3.0958388557
 H          0.3157126625       -1.8550676543       -2.3118175653
 H          1.6260511837       -2.6825324474       -0.4765849104
 C          1.3094029970       -2.4394840005        1.6013754617
 C          2.6115624471       -2.6002237980        2.3258034239
 C          1.5986914753       -1.6113637477        2.8158064439
 H          1.0616468735       -1.8387394316        3.7256036525
 H          1.7939765962       -0.5592137761        2.6797587573
 H          2.7777746617       -3.4986848772        2.9005614017
 H          3.4983503972       -2.2214135900        1.8386161362
 H          0.5861317631       -3.2399761850        1.7253703373
