  62
        -98.93944516
 C         -2.6902087494       -1.1725611213       -0.0510542501
 C         -2.8252431694       -0.0631522713       -0.9199929402
 C         -4.1736662594        0.5111160486       -1.0083634803
 C         -5.1862561094       -0.0474267315       -0.3203669604
 C         -6.6216067495        0.4040564284       -0.3345418105
 C         -6.9255449896        1.5480987685        0.6423668394
 C         -6.3699410497        2.9137461785        0.2364909893
 H         -6.6773336496        3.1408477784       -0.7847567607
 H         -6.8346268498        3.6553247485        0.8893183392
 C         -4.8444387997        3.0374924186        0.3567189294
 H         -4.4620076897        2.2338546087        0.9904396995
 H         -4.5928699098        3.9789807087        0.8502137794
 C         -4.0978266496        3.0122187486       -0.9771974305
 H         -3.0257556596        3.0655020287       -0.7700810604
 H         -4.3718956096        3.8899506085       -1.5666605506
 C         -4.3544756994        1.7569827085       -1.8216003704
 H         -5.3546408194        1.7909152484       -2.2530052705
 H         -3.6220415994        1.7335535285       -2.6320626404
 H         -6.5411943297        1.2766056886        1.6283706994
 H         -8.0120916596        1.6299225884        0.7207516293
 H         -7.2221783794       -0.4619128516       -0.0478447405
 H         -6.9019575594        0.7024520984       -1.3450021706
 O         -5.0188883294       -1.1355605414        0.4787389197
 C         -3.7684574194       -1.7058638513        0.6536628398
 O         -3.7471959294       -2.6688028312        1.4478669499
 O         -1.8743960594        0.4195342387       -1.5878409102
 C         -1.3327775094       -1.8249640512        0.1296469800
 C         -0.3098989995       -0.8058195411        0.5710741600
 C         -0.6366513496        0.0892929290        1.5860048600
 C          0.2784021403        1.0254299291        2.0270997700
 C          1.5456227503        1.0883193791        1.4734935701
 C          1.8904475905        0.1869590791        0.4773042002
 C          0.9662935806       -0.7515700110        0.0335915101
 H          1.2510710307       -1.4421994211       -0.7454937098
 N          3.1824414705        0.2381741391       -0.0945868097
 S          4.4945855105       -0.1023327807        0.9154086204
 O          4.6038901005       -1.5330672107        1.1159378005
 O          4.3943086203        0.7003144393        2.1059477203
 C          5.8449243805        0.4719518693       -0.0952523295
 C          6.0393688904        1.8348448593       -0.2114541896
 C          7.0725135405        2.2981321693       -1.0098326396
 C          7.8889853006        1.3957823993       -1.6757944794
 C          7.6813207607        0.0308891393       -1.5491908194
 C          6.6485363706       -0.4388490807       -0.7526713294
 H          6.4555505607       -1.4912107107       -0.6195445794
 H          8.3188717507       -0.6679190407       -2.0664775693
 H          8.6934106206        1.7589611393       -2.2957260694
 H          7.2382459704        3.3586819093       -1.1104073996
 H          5.3850570903        2.4988184093        0.3285528003
 H          3.2484965906       -0.3750367809       -0.8977593797
 H          2.2691636803        1.8082178992        1.8175651601
 H          0.0024737502        1.7175538291        2.8088374599
 H         -1.6255863096        0.0431909389        2.0230732199
 H         -1.4504675594       -2.5583562111        0.9416438701
 C         -0.9481464292       -2.5618968312       -1.1374078199
 C         -0.0820697591       -3.7833582512       -1.0734265897
 C         -1.5405234691       -3.9140655313       -1.3919196599
 H         -1.8285053190       -4.1700997314       -2.4003969499
 H         -2.1983547791       -4.3154034813       -0.6346282999
 H          0.6301540309       -3.9547419612       -1.8669498797
 H          0.2563820708       -4.1076551911       -0.1005628197
 H         -0.8372865792       -1.8960439613       -1.9860267599
