  62
        -98.94134577
 C         -1.7824902616       -0.0448373476        0.3921313923
 C         -2.9285365585       -0.4207913699        1.1421866493
 C         -4.1882876918        0.2356595591        0.7783272646
 C         -4.1927286751        1.1846946176       -0.1744334886
 C         -5.3904851099        1.9668043154       -0.6404850664
 C         -6.2339520578        1.2435922309       -1.6995392313
 C         -7.0613139767        0.0666472428       -1.1807763208
 H         -7.6503136332        0.3890566035       -0.3215671247
 H         -7.7624430014       -0.2050777592       -1.9724303844
 C         -6.2358638343       -1.1723441100       -0.8063222089
 H         -5.2432767172       -1.0974138452       -1.2567054130
 H         -6.7088699451       -2.0645121971       -1.2228859847
 C         -6.0822730203       -1.4009425086        0.6975178474
 H         -5.4527580207       -2.2817912777        0.8481961699
 H         -7.0599995655       -1.6078038038        1.1381270605
 C         -5.4445164172       -0.2270343105        1.4522030782
 H         -6.1548902741        0.5948076769        1.5392030310
 H         -5.1777417062       -0.5676994064        2.4556163756
 H         -6.9179903330        1.9793629626       -2.1287608750
 H         -5.5724950167        0.9002691666       -2.4984789314
 H         -6.0177148958        2.2211138860        0.2144714492
 H         -5.0071218466        2.8913931864       -1.0776465879
 O         -3.0641861650        1.5650691174       -0.8264585745
 C         -1.8381137077        0.9529845274       -0.5829296411
 O         -0.9161033840        1.3957858985       -1.2922985670
 O         -2.8978188288       -1.2650046071        2.0758476579
 C         -0.4761711746       -0.7364389689        0.7424460556
 C          0.6206919159        0.2715861609        0.9594144874
 C          0.7241177348        0.9312533324        2.1799214396
 C          1.7287651343        1.8549871763        2.4052159572
 C          2.6499778511        2.1447196734        1.4133333419
 C          2.5422941442        1.5043471956        0.1879087256
 C          1.5438571055        0.5666180279       -0.0315481188
 H          1.4684249329        0.0817993039       -0.9925181970
 N          3.5024407089        1.7782333869       -0.8188223063
 S          4.9674351784        1.0094742884       -0.5521187734
 O          5.5771701964        1.5748361535        0.6239614724
 O          5.7159356218        1.1225935270       -1.7833745130
 C          4.5173396582       -0.6906836697       -0.2511502949
 C          4.1939432107       -1.0791884742        1.0335768097
 C          3.7356682177       -2.3692076273        1.2470187700
 C          3.6054570564       -3.2420203249        0.1774477047
 C          3.9369277302       -2.8372554492       -1.1067628483
 C          4.3906265624       -1.5467265804       -1.3268162886
 H          4.6581103136       -1.1914140459       -2.3092863071
 H          3.8356952247       -3.5197554749       -1.9354417577
 H          3.2421622742       -4.2438218176        0.3461910977
 H          3.4726825905       -2.6853124404        2.2437340715
 H          4.3078138993       -0.3708801055        1.8378421752
 H          3.1678654648        1.5424305262       -1.7432070458
 H          3.4523429545        2.8469629876        1.5717533166
 H          1.7971614270        2.3528955365        3.3605606686
 H          0.0039237491        0.7104507291        2.9556220867
 H         -0.6843736835       -1.2251532036        1.7077626647
 C         -0.0594121172       -1.8402785760       -0.2194915816
 C         -1.0819433682       -2.7628359579       -0.8097373692
 C         -0.3435610282       -1.8013738281       -1.6898527032
 H          0.4055406248       -2.1949190992       -2.3616989084
 H         -0.8745281767       -0.9485181603       -2.0830624180
 H         -0.8496432240       -3.8142276687       -0.8831372115
 H         -2.1197914655       -2.5578880252       -0.5901358791
 H          0.8853511729       -2.2874284358        0.0757676467
