  62
        -98.94471491
 C          1.8078054888        0.5233240415       -0.4885334866
 C          2.8583774993        1.3017595609        0.0540907893
 C          4.2171975337        0.8261570575       -0.2270141522
 C          4.3960451067       -0.2753829322       -0.9787851379
 C          5.7205044946       -0.8692892281       -1.3756228254
 C          6.3319714587       -1.7959284396       -0.3157725590
 C          6.8914834964       -1.0904146890        0.9202453761
 H          7.4772862900       -1.8282262983        1.4721272188
 H          7.5748988480       -0.3002929573        0.6076865850
 C          5.8221622253       -0.5092139762        1.8557476790
 H          4.8543363888       -0.9614132008        1.6266998284
 H          6.0611625721       -0.7712628877        2.8889211740
 C          5.6854443218        1.0121670323        1.7942417918
 H          6.6085051221        1.4773940530        2.1469954369
 H          4.8787746000        1.3115410645        2.4681785936
 C          5.3643844713        1.5614492240        0.3979495036
 H          5.0711569594        2.6090534295        0.5004791646
 H          6.2458702545        1.5056538047       -0.2402583520
 H          7.1462709570       -2.3450571068       -0.7941936849
 H          5.5758512619       -2.5229481470       -0.0102808796
 H          6.4242753923       -0.0708517998       -1.6125520005
 H          5.5396738249       -1.4535603982       -2.2804754334
 O          3.3591396992       -0.9866599721       -1.4967270659
 C          2.0427681210       -0.6212697498       -1.2500757149
 O          1.1970489623       -1.3804143230       -1.7603456703
 O          2.6686722010        2.3411925954        0.7404040048
 C          0.3731128202        0.9500661263       -0.2320163548
 C         -0.3713825718       -0.1525544283        0.4768008628
 C          0.1678024264       -0.6632569743        1.6561907554
 C         -0.4568883783       -1.6908190768        2.3335504966
 C         -1.6425727830       -2.2234632772        1.8575155130
 C         -2.1942882568       -1.7157329390        0.6880818463
 C         -1.5640469590       -0.6799031242        0.0086849884
 H         -2.0037425192       -0.3204162249       -0.9062886538
 N         -3.3916889425       -2.2406500044        0.1870924965
 S         -4.4729421880       -1.2990489095       -0.6571069019
 O         -5.7335264605       -1.9990833072       -0.5234103841
 O         -4.0213402434       -1.0816152238       -2.0085011245
 C         -4.5570295179        0.2599535533        0.2095046185
 C         -4.6015941417        1.4262230144       -0.5260262956
 C         -4.6871805074        2.6397102032        0.1376875021
 C         -4.7258898248        2.6655051295        1.5227441737
 C         -4.6868013874        1.4850036405        2.2487699360
 C         -4.6055370816        0.2691071395        1.5895567986
 H         -4.5782202799       -0.6606863884        2.1334348338
 H         -4.7181917855        1.5080387866        3.3261511351
 H         -4.7872505592        3.6105215800        2.0390072744
 H         -4.7192539499        3.5574725181       -0.4274175645
 H         -4.5619220510        1.3593075780       -1.6012309900
 H         -3.8455683102       -2.9290998453        0.7678350065
 H         -2.1296495517       -3.0331843807        2.3790319421
 H         -0.0214388305       -2.0810642772        3.2410379307
 H          1.0945104595       -0.2466659044        2.0266787446
 H          0.4444941179        1.8098804338        0.4506988884
 C         -0.2775769109        1.4072511184       -1.5193506712
 C         -1.3830036074        2.4179910269       -1.4873319392
 C         -0.0276576818        2.8061640396       -1.9948815990
 H          0.1003664548        2.9760444215       -3.0534373887
 H          0.5922510163        3.4356772475       -1.3733968033
 H         -2.1865679990        2.3177258595       -2.2008236333
 H         -1.6923475771        2.7899091348       -0.5223777666
 H         -0.3212334988        0.6245947211       -2.2692012556
