  62
        -98.93518659
 C          2.2642573399        1.0995716694       -0.5378124400
 C          3.4852442398        0.8844592191        0.1476727101
 C          4.2154954895       -0.3648141011       -0.1384951998
 C          3.6810526494       -1.2370493809       -1.0131581099
 C          4.2075382492       -2.5830307710       -1.4366344299
 C          4.0014224688       -3.6658564810       -0.3666638099
 C          4.3755801988       -3.2444852211        1.0516301501
 H          3.7722765490       -2.3812143410        1.3391595201
 H          4.1049358486       -4.0640190110        1.7227643701
 C          5.8540571889       -2.9298424414        1.2686766403
 H          6.4505427987       -3.8010608216        0.9894918003
 H          5.9935775188       -2.7616235215        2.3395787903
 C          6.3952918492       -1.7065438915        0.5243153804
 H          7.3553903692       -1.4474845918        0.9798016004
 H          6.6007021592       -1.9359851916       -0.5178336496
 C          5.5153905895       -0.4647978813        0.6229588603
 H          5.2677792494       -0.2812417813        1.6747374503
 H          6.1033047797        0.4066976685        0.3109987703
 H          4.5799088087       -4.5461889111       -0.6522566198
 H          2.9439707488       -3.9425806408       -0.3634158900
 H          3.6496318392       -2.8685763109       -2.3312698799
 H          5.2556823992       -2.5064116213       -1.7100130998
 O          2.4948861696       -0.9959263407       -1.6398480300
 C          1.7596939898        0.1562579695       -1.4317477001
 O          0.7099594199        0.2074854897       -2.1038296202
 H         -0.9301916100        1.4185100901       -0.9525839803
 C         -0.8546570201        1.5859969000        0.1109156297
 C          0.3267696400        2.0844046398        0.6402689798
 C          0.4196654299        2.2479221498        2.0184802498
 C         -0.6452409602        1.9250987100        2.8403738497
 C         -1.8227257503        1.4295242402        2.3084498996
 C         -1.9190555502        1.2479233403        0.9351396996
 N         -3.1112686603        0.7379169905        0.3706865095
 S         -3.6176214406       -0.7745834794        0.9316496794
 O         -4.0248735707       -0.6391760693        2.3074844694
 O         -2.6086058108       -1.7788843896        0.6676287495
 C         -5.0481858106       -1.0398938590       -0.0962545307
 C         -6.2373401605       -0.4313815488        0.2572322192
 C         -7.3464638605       -0.6079168385       -0.5543050709
 C         -7.2482876805       -1.3847986785       -1.6991609609
 C         -6.0478758506       -1.9893655188       -2.0404266208
 C         -4.9339430407       -1.8151177091       -1.2339322507
 H         -3.9819506607       -2.2704758993       -1.4575458606
 H         -5.9740681207       -2.5942183188       -2.9299381308
 H         -8.1128504005       -1.5220808783       -2.3292546010
 H         -8.2819854004       -0.1407618783       -0.2922421310
 H         -6.2677553705        0.1555904212        1.1599590492
 H         -3.0238959302        0.6808064705       -0.6370528505
 H         -2.6524982704        1.1579022004        2.9398263095
 H         -0.5588207103        2.0590892399        3.9082743697
 H          1.3440047100        2.6150876795        2.4416221099
 C          1.5146655902        2.3885247495       -0.2403540901
 H          2.2169096802        2.9978016194        0.3441273400
 C          1.1389175304        3.1541557396       -1.4926203601
 C          0.7513855907        4.5965392097       -1.3713935101
 C          2.0590556507        4.2220760294       -1.9999032100
 H          2.1721140709        4.3384739794       -3.0673545300
 H          2.9658364607        4.4067614292       -1.4427223799
 H          0.7703135707        5.0348189097       -0.3850690701
 H         -0.0353965691        4.9742207099       -2.0059412902
 H          0.6277839104        2.5527699297       -2.2331353602
 O          3.9598859899        1.7106076090        0.9732357002
