  62
        -98.93404856
 C          2.1669952593        1.1533850114       -0.0345859469
 C          2.8832236410        0.5472297670        1.0302061374
 C          3.7608627863       -0.5791656193        0.6828396324
 C          3.8181803145       -0.9891611128       -0.5968610902
 C          4.7182883886       -2.0668768508       -1.1309040100
 C          6.1563971896       -1.5291081423       -1.2756585700
 C          7.1741986793       -2.1944208253       -0.3490834278
 H          7.4136822575       -3.1859640795       -0.7389088986
 H          8.0875626348       -1.5968721533       -0.3840286089
 C          6.7406442422       -2.3575606391        1.1108405408
 H          6.0781265000       -3.2195015321        1.2031535330
 H          7.6393672857       -2.5930577506        1.6847581721
 C          6.0547002518       -1.1416636822        1.7469992807
 H          6.3430459573       -0.2243784622        1.2332783740
 H          6.4066686461       -1.0536238546        2.7767836747
 C          4.5182640297       -1.2304119204        1.8068587663
 H          4.1731837093       -0.7165002592        2.7089583813
 H          4.2149974902       -2.2779082004        1.8909407182
 H          6.1396112315       -0.4535132374       -1.0877130021
 H          6.4923906351       -1.6627385531       -2.3050314529
 H          4.6951080706       -2.9271065374       -0.4654017382
 H          4.3244623847       -2.3671831487       -2.1022292145
 O          3.0997079434       -0.4023955011       -1.5870571283
 C          2.2550190190        0.6739950815       -1.3410827042
 O          1.6649697635        1.0819483386       -2.3597424966
 O          2.7955333513        0.9424436222        2.2236539635
 C          1.2816257698        2.3337548404        0.3298239461
 C         -0.1291810360        1.8751866333        0.5967265466
 C         -0.7588129351        2.1505885977        1.8042851503
 C         -2.0449324164        1.6991286949        2.0463276108
 C         -2.7281784196        0.9686004499        1.0908361326
 C         -2.1050563489        0.6826558194       -0.1171038269
 C         -0.8166395744        1.1359117642       -0.3568603282
 H         -0.3344752141        0.9086703474       -1.2968096794
 N         -2.7925089176       -0.0579517336       -1.0983837726
 S         -3.3817618615       -1.5637500116       -0.6368602763
 O         -2.5925967066       -2.1345036627        0.4312123202
 O         -3.4660975075       -2.3347530504       -1.8580068055
 C         -5.0288392360       -1.2096936484       -0.0598713672
 C         -5.4051332477       -1.5737219969        1.2181330334
 C         -6.6942003990       -1.2907942788        1.6428360511
 C         -7.5786780643       -0.6530396892        0.7864649157
 C         -7.1855788317       -0.2962133363       -0.4949841520
 C         -5.8990425570       -0.5772332939       -0.9263279915
 H         -5.5540951342       -0.3210834198       -1.9141270169
 H         -7.8761331169        0.1996344563       -1.1579881452
 H         -8.5804643483       -0.4329594855        1.1199921898
 H         -7.0014808524       -1.5675400095        2.6385411550
 H         -4.6803453366       -2.0619151401        1.8501009423
 H         -2.2732046916       -0.1403796676       -1.9616625598
 H         -3.7289601399        0.6128944454        1.2736994309
 H         -2.5206900050        1.9176972779        2.9900185691
 H         -0.2259445519        2.7058560671        2.5621389139
 H          1.6927956023        2.7014243376        1.2830747038
 C          1.3659290392        3.4774753154       -0.6723683532
 C          0.2233912574        3.9216303762       -1.5313302190
 C          0.6675673511        4.7735520082       -0.3829990781
 H          1.1840404581        5.6986129594       -0.5889768036
 H          0.0294252563        4.8055131711        0.4872637715
 H          0.4522235528        4.2395019161       -2.5371665459
 H         -0.7172271232        3.4012471400       -1.4451846063
 H          2.3520063420        3.5469779273       -1.1206988223
