  62
        -98.93529406
 C         -2.4467136740       -1.3926269672       -0.0004436165
 C         -3.1558532181       -0.7280529854        1.0319391558
 C         -4.0027899804        0.4106801102        0.6392807422
 C         -4.0567331955        0.7618803526       -0.6567263438
 C         -4.8018197548        1.9168092643       -1.2666029787
 C         -3.8939762042        3.1543466506       -1.3704447102
 C         -3.8750225071        4.0459267123       -0.1294924493
 H         -3.1051479236        4.8048013983       -0.2878039577
 H         -4.8333978890        4.5625097176       -0.0441543594
 C         -3.5880016265        3.3251469089        1.1903354804
 H         -2.7739088391        2.6107165671        1.0498445008
 H         -3.2386592005        4.0699250429        1.9082215426
 C         -4.8196709929        2.6138760743        1.7706016886
 H         -5.7088366838        2.9512963039        1.2384564383
 H         -4.9503325580        2.9119595072        2.8128545868
 C         -4.7583080714        1.0798644663        1.7548444701
 H         -4.2706987828        0.7261280724        2.6686158099
 H         -5.7786013672        0.6822210674        1.7714233118
 H         -2.8791895171        2.8107513617       -1.5902075082
 H         -4.2228056595        3.7606368763       -2.2170472542
 H         -5.0841853908        1.6071282006       -2.2750023091
 H         -5.7027760871        2.1365861118       -0.7017223822
 O         -3.3570309453        0.1022364914       -1.6187567000
 C         -2.5322147661       -0.9738886450       -1.3277901959
 O         -1.9571174095       -1.4431706104       -2.3289532959
 H          0.0509576996       -1.2726499593       -1.3011862656
 C          0.5308685951       -1.4340485512       -0.3465086810
 C         -0.1606435785       -2.1024524167        0.6554956135
 C          0.4659813011       -2.2929797721        1.8807057013
 C          1.7520893664       -1.8264778435        2.0934678745
 C          2.4375518276       -1.1635115806        1.0913415746
 C          1.8176857881       -0.9640822390       -0.1355265241
 N          2.5057374911       -0.2836288211       -1.1618941461
 S          2.9660066607        1.2969897212       -0.8102913891
 O          2.0750726986        1.9014623650        0.1547120894
 O          3.0753307505        1.9620182692       -2.0904487844
 C          4.5929512040        1.1110475273       -0.1116903367
 C          5.5615329942        0.4932277223       -0.8785719914
 C          6.8335632898        0.3381289477       -0.3514177583
 C          7.1145796862        0.8037915494        0.9245452102
 C          6.1322043377        1.4256658209        1.6799256989
 C          4.8568737976        1.5824757729        1.1592541823
 H          4.0587227513        2.0527533141        1.7111484429
 H          6.3525600930        1.7873368992        2.6714206946
 H          8.1052707534        0.6814116919        1.3328954342
 H          7.6000498885       -0.1451336714       -0.9355404318
 H          5.3012577476        0.1502838712       -1.8660237162
 H          2.0053005764       -0.3008690259       -2.0404023384
 H          3.4381457361       -0.7962796095        1.2514846643
 H          2.2254185106       -1.9790275709        3.0512446195
 H         -0.0696746140       -2.7926161332        2.6744711715
 C         -1.5754185584       -2.5652805459        0.4189416590
 H         -1.9865340604       -2.8798017716        1.3908976692
 C         -1.6762906971       -3.7556044484       -0.5256010516
 C         -0.5324265224       -4.2741617848       -1.3402871631
 C         -1.0190750611       -5.0534092562       -0.1580751390
 H         -1.5575548283       -5.9736215872       -0.3255749705
 H         -0.3966623090       -5.0575585433        0.7241220611
 H         -0.7534641461       -4.6374771545       -2.3324419322
 H          0.4212997651       -3.7764133125       -1.2638424139
 H         -2.6563698174       -3.8215855353       -0.9871139423
 O         -3.0847849565       -1.0784978675        2.2406036009
