  62
        -98.93969144
 C          1.7295257018        1.5748672716        0.1368209283
 C          1.5440801660        0.2330182984       -0.2691713900
 C          2.6007873685       -0.7207085456        0.1196552976
 C          3.6670460826       -0.2828779712        0.8144637356
 C          4.8681136715       -1.0193494383        1.3708534717
 C          5.1731402448       -2.4523667402        0.9430895631
 C          5.6135693011       -2.6037862799       -0.5127961190
 H          5.6980755428       -3.6695682829       -0.7360042847
 H          6.6075640085       -2.1623937716       -0.6216510786
 C          4.7037437340       -1.9487194918       -1.5489855782
 H          5.1451319119       -2.1179098712       -2.5350259600
 H          4.6826937683       -0.8689342187       -1.3879290371
 C          3.2700241447       -2.4737631372       -1.5844740599
 H          3.2801167592       -3.5577847487       -1.7128983547
 H          2.7820064736       -2.0371359092       -2.4598381277
 C          2.4097388497       -2.1319095639       -0.3560875865
 H          2.5809571426       -2.8360563544        0.4542684612
 H          1.3582495661       -2.2091364186       -0.6468007744
 H          4.3255597854       -3.0968537679        1.1558994607
 H          5.9977816033       -2.7961940859        1.5734669909
 H          4.7472023414       -1.0009729397        2.4596456079
 H          5.7343788212       -0.3876953569        1.1490139765
 O          3.7956438790        1.0252125293        1.1886624171
 C          2.8436401209        1.9757530771        0.8718218766
 O          3.0985938919        3.1220667233        1.2933767852
 O          0.5453783806       -0.1626111651       -0.9241413178
 C          0.6863280081        2.6282797877       -0.1962477695
 C         -0.6219011521        2.2008803894        0.4211508096
 C         -0.7219467208        2.1647243839        1.8095896389
 C         -1.8745036573        1.7141495419        2.4238888894
 C         -2.9485111994        1.2771416961        1.6672327318
 C         -2.8545408096        1.3014339081        0.2828402689
 C         -1.7027254562        1.7755206372       -0.3325477651
 H         -1.6469759119        1.7853782029       -1.4092280769
 N         -3.9334181902        0.8481953817       -0.4997948340
 S         -4.5734272252       -0.6642709565       -0.1761708679
 O         -5.3585088999       -0.9933388664       -1.3447444297
 O         -5.2889824358       -0.6174122695        1.0746725195
 C         -3.1826929566       -1.7712992305       -0.0413944928
 C         -2.6406577917       -2.2875875080       -1.2010767375
 C         -1.5500154052       -3.1356479645       -1.1121845329
 C         -1.0167168724       -3.4438717089        0.1294471021
 C         -1.5649219319       -2.9079938359        1.2837989949
 C         -2.6596964085       -2.0631834082        1.2015341766
 H         -3.1201548015       -1.6368375297        2.0775376335
 H         -1.1421025371       -3.1442422576        2.2472810097
 H         -0.1688882982       -4.1074540897        0.1979907376
 H         -1.1157349413       -3.5483790637       -2.0087264609
 H         -3.0896619241       -2.0321353933       -2.1475519900
 H         -3.7681924650        0.9401648073       -1.4920938942
 H         -3.8518581437        0.9123070179        2.1285372178
 H         -1.9382725892        1.6971927706        3.5015322964
 H          0.1252116122        2.4876031022        2.3999228832
 H          1.0171605923        3.5526067406        0.2966735123
 C          0.6216482190        2.8666878079       -1.6898413130
 C          0.0081059976        4.1281303482       -2.2169077387
 C          1.4907461752        3.9247320694       -2.2969130500
 H          1.9346313873        3.7354279444       -3.2628708537
 H          2.1242945374        4.4918495886       -1.6305157675
 H         -0.5653313425        4.0832112723       -3.1304907924
 H         -0.3681351841        4.8383007823       -1.4962096053
 H          0.4839490569        1.9544822183       -2.2584420660
