  62
        -98.94059512
 C          1.1184368712        1.3599103087        0.5397047988
 C          1.6834742708        0.8123868985       -0.6345878513
 C          2.5520752905       -0.3718045518       -0.4634078613
 C          2.6707990305       -0.9207744918        0.7591666587
 C          3.5064200101       -2.0997479120        1.1842476986
 C          5.0010584703       -1.7606101825        1.2919695884
 C          5.5623014904       -0.9642068828        0.1174510983
 H          6.6015189305       -0.7179049731        0.3507707681
 H          5.0183223607       -0.0220861826        0.0314297583
 C          5.5438196400       -1.6880986328       -1.2270324817
 H          6.0939162397       -2.6272929730       -1.1363902217
 H          6.0812934201       -1.0578939030       -1.9401534218
 C          4.1589369798       -1.9845631624       -1.8088781715
 H          3.7165454196       -2.8599028322       -1.3405136814
 H          4.2974734995       -2.2355832625       -2.8643972915
 C          3.1892248202       -0.8080327521       -1.7607021014
 H          2.3548497500       -1.0067830118       -2.4427192913
 H          3.6849403504        0.0790603777       -2.1712737115
 H          5.5582123300       -2.6925841127        1.4027422684
 H          5.1509142906       -1.1690915425        2.1985851183
 H          3.3527400098       -2.9375910320        0.5109048287
 H          3.1483204702       -2.3962267519        2.1727067987
 O          2.0172709608       -0.4168225115        1.8461698287
 C          1.2488243411        0.7239866687        1.7743961088
 O          0.7287915714        1.0663431389        2.8578566389
 O          1.4994775908        1.2861188585       -1.7848595613
 C          0.2566913416        2.6132498190        0.4947547388
 C         -1.0714977086        2.2318086794       -0.1106892010
 C         -1.4728080087        2.5816517294       -1.3922660309
 C         -2.6783227089        2.1216492398       -1.8967465507
 C         -3.5054563691        1.3126920101       -1.1386190706
 C         -3.1125767090        0.9633888200        0.1471979894
 C         -1.9067505188        1.4215000197        0.6500796992
 H         -1.5933814287        1.1374354796        1.6469948092
 N         -3.9384168392        0.1185472203        0.9255198195
 S         -4.1015631498       -1.4367532296        0.3230081396
 O         -4.9468868699       -1.3984847594       -0.8425371503
 O         -4.5741885899       -2.2378947894        1.4289927497
 C         -2.4491883400       -1.9241514502       -0.1385799206
 C         -2.0297967401       -1.7519445904       -1.4419537306
 C         -0.7297706603       -2.0940674108       -1.7761784808
 C          0.1230863697       -2.5973314210       -0.8068498309
 C         -0.3093768202       -2.7530151108        0.5008924892
 C         -1.6067339300       -2.4088515004        0.8418700793
 H         -1.9815714299       -2.5242381502        1.8467017194
 H          0.3605553898       -3.1346318310        1.2549609891
 H          1.1315958796       -2.8693663314       -1.0724982210
 H         -0.3851133004       -1.9635691510       -2.7893670009
 H         -2.7259009901       -1.3657838002       -2.1682292406
 H         -3.6360127691        0.0650734703        1.8888048995
 H         -4.4384725992        0.9334232904       -1.5231195404
 H         -2.9765031690        2.3957565599       -2.8972279407
 H         -0.8338620586        3.1980629692       -2.0022328210
 H          0.0775453718        2.8897711091        1.5431944289
 C          0.9507536919        3.7642380887       -0.1987342613
 C          0.4437593423        5.1581961289        0.0122451087
 C          1.7464704023        4.7343658885        0.6196141585
 H          2.6622114923        5.1285487782        0.2052068084
 H          1.7851940524        4.5757852585        1.6877978785
 H          0.4646060124        5.8468739588       -0.8183838913
 H         -0.4037171175        5.2867585492        0.6687208788
 H          1.3386999316        3.5050304585       -1.1753246213
