  62
        -98.94308974
 C         -1.8536706216       -0.7968733372        0.7212341126
 C         -2.8251320966       -1.1940860510       -0.2303164106
 C         -4.1677695575       -0.6174460800       -0.0556343279
 C         -4.4042193146        0.2220848454        0.9675727904
 C         -5.7065870848        0.9229277219        1.2221496505
 C         -5.7469649439        2.2915738016        0.5279537174
 C         -5.3295101079        2.2522701412       -0.9422390166
 H         -5.4261067316        3.2672540989       -1.3339737965
 H         -4.2722208622        1.9839116593       -1.0054905771
 C         -6.1504383045        1.2886251087       -1.8106077351
 H         -7.0849333244        1.0405869864       -1.3060220514
 H         -6.4099431750        1.7936897835       -2.7434061284
 C         -5.4211369947       -0.0013941464       -2.1901398600
 H         -5.9991831577       -0.5004965734       -2.9723629136
 H         -4.4421247864        0.2418560700       -2.6105720504
 C         -5.2198556652       -1.0119184726       -1.0540192266
 H         -4.8730997897       -1.9482992592       -1.5003181854
 H         -6.1726033738       -1.2005553574       -0.5555296532
 H         -6.7597931073        2.6902795841        0.6101654764
 H         -5.0715172282        2.9680968137        1.0570645398
 H         -5.8139578444        1.0682682383        2.2984565359
 H         -6.5244318825        0.2992678088        0.8664094786
 O         -3.4529183077        0.5662866147        1.8732066549
 C         -2.1630595151        0.0759766169        1.7687560025
 O         -1.3928034356        0.4771813842        2.6654511186
 O         -2.6087244096       -1.9897691915       -1.1807412200
 C         -0.4112270288       -1.2810097373        0.6748885380
 C          0.3516101140       -0.5260016942       -0.3879211522
 C          0.1954219013       -0.7999736332       -1.7432235263
 C          0.8883236597       -0.0674619968       -2.6892059939
 C          1.7621741051        0.9351059005       -2.3066195442
 C          1.9229891083        1.2197472689       -0.9562414360
 C          1.2159394616        0.4922462356       -0.0085486019
 H          1.3334250170        0.7402760106        1.0362624507
 N          2.8019749644        2.2352860782       -0.5358398226
 S          3.9402104601        1.8719466600        0.6366012051
 O          3.3071923726        1.7182858157        1.9207863389
 O          4.9247842807        2.9260052632        0.5285800237
 C          4.6390517605        0.3236372110        0.0941451183
 C          4.1442286546       -0.8619863053        0.5978355247
 C          4.6390851156       -2.0580701018        0.1023187751
 C          5.6143655127       -2.0471571858       -0.8826547410
 C          6.1062781204       -0.8473829806       -1.3741022240
 C          5.6114209900        0.3510524652       -0.8866702110
 H          5.9715236039        1.3056553249       -1.2347328196
 H          6.8688521445       -0.8429387378       -2.1360141131
 H          5.9943833161       -2.9805393896       -1.2666691901
 H          4.2582879334       -2.9918285840        0.4843123863
 H          3.3905354956       -0.8262891293        1.3677669244
 H          3.2371034831        2.7383845373       -1.2962995839
 H          2.3071672515        1.5023202426       -3.0460283731
 H          0.7520916802       -0.2845433244       -3.7377322504
 H         -0.4979916883       -1.5669069267       -2.0490545110
 H          0.0188778207       -1.0075342889        1.6481814663
 C         -0.2976880314       -2.7830045630        0.5073153587
 C          0.9596316471       -3.4679576498        0.9468193332
 C         -0.3071361840       -3.6537450848        1.7259303551
 H         -0.8134553457       -4.6059036767        1.6742652301
 H         -0.3919941728       -3.1673883660        2.6874763151
 H          1.3281720271       -4.2948711798        0.3599148158
 H          1.7321606719       -2.8544630554        1.3853173611
 H         -0.8009417534       -3.1620982670       -0.3713947582
