  62
        -98.94527232
 C         -1.8271494998       -1.2867726504       -0.0655401100
 C         -2.9737045698       -0.8199688106        0.6183058501
 C         -3.6479128700        0.3429720393        0.0242886302
 C         -3.1477108802        0.8911193795       -1.0984829298
 C         -3.6998338704        2.1121775294       -1.7747871897
 C         -3.0348262406        3.3918526795       -1.2481683797
 C         -2.9920492205        3.4833243794        0.2772345103
 H         -2.3434048604        2.6939419595        0.6650894002
 H         -2.5239424107        4.4362697495        0.5342624203
 C         -4.3651391405        3.3869398792        0.9571179204
 H         -5.1530558506        3.5856981291        0.2298003104
 H         -4.4306686306        4.1603261991        1.7253758704
 C         -4.6386378502        2.0488705691        1.6465250603
 H         -3.8072751102        1.8025925992        2.3124696003
 H         -5.5304166802        2.1632152089        2.2684883704
 C         -4.8810673101        0.8550150891        0.7142304303
 H         -5.2472302799        0.0260997890        1.3272304303
 H         -5.6530613202        1.1094664790       -0.0148357297
 H         -3.5741476208        4.2518546694       -1.6490923396
 H         -2.0090912606        3.4312543897       -1.6223115998
 H         -3.5080831905        2.0286760795       -2.8457698197
 H         -4.7748378604        2.1564393992       -1.6110613297
 O         -2.0410447902        0.4176127397       -1.7254543499
 C         -1.3536552000       -0.6854281702       -1.2322832200
 O         -0.3627279499       -1.0155133900       -1.9059420201
 H         -0.1144750499       -0.1908795501        1.4659120200
 C          0.6863031702       -0.8880672200        1.2506120899
 C          0.3753056004       -2.1384846900        0.7313364699
 C          1.4170909805       -3.0186235299        0.4669424998
 C          2.7293548205       -2.6498817197        0.7095860797
 C          3.0342243903       -1.3983912496        1.2110575797
 C          2.0001042402       -0.5098374498        1.4773101398
 N          2.3001287300        0.7771266302        1.9581992499
 S          3.5247495598        1.6148817005        1.1784076499
 O          4.7954988899        1.2373916306        1.7464219098
 O          3.1701063196        3.0111540904        1.3117057299
 C          3.4551538398        1.1047058105       -0.5295193802
 C          2.2743195797        1.2872529904       -1.2208929001
 C          2.1939377397        0.8657397704       -2.5372526501
 C          3.2943629598        0.2733812706       -3.1374375202
 C          4.4770367899        0.1062617108       -2.4341119403
 C          4.5604928899        0.5222811907       -1.1152694803
 H          5.4565387999        0.4037241708       -0.5279118003
 H          5.3304138799       -0.3532674491       -2.9062514103
 H          3.2240994898       -0.0619943394       -4.1600737802
 H          1.2667034997        0.9757577503       -3.0756728201
 H          1.4312489397        1.7470179502       -0.7289704400
 H          1.4885261699        1.3644017801        2.0819106000
 H          4.0503810703       -1.0932432495        1.4015560497
 H          3.5270003006       -3.3452977995        0.4986299796
 H          1.2017665807       -3.9950163599        0.0655503097
 C         -1.0735880396       -2.4827826203        0.4849720999
 H         -1.5439056295       -2.7062702604        1.4547243899
 C         -1.2563219194       -3.6776565102       -0.4291279401
 C         -1.2966983492       -5.0669721203        0.1315613798
 C         -2.5516125193       -4.4295410205       -0.3819786701
 H         -2.9743597293       -4.7885692805       -1.3083075701
 H         -3.2897945493       -4.0985650506        0.3341206200
 H         -1.1884706491       -5.1800102103        1.1997345698
 H         -0.8593928991       -5.8686216102       -0.4443519402
 H         -0.7996280795       -3.5282980601       -1.4010997901
 O         -3.4102053597       -1.3465176407        1.6781458401
