  62
        -98.94136156
 C          1.2195395384        0.9062989170        0.6697186843
 C          2.1117750383        0.7953810715       -0.4206439324
 C          2.8751460176       -0.4618213164       -0.5222082693
 C          2.6516769354       -1.4475086765        0.3660199400
 C          3.2257038894       -2.8455966560        0.4673985093
 C          4.4925766874       -3.2286563135       -0.2936224825
 C          5.7605730632       -2.5109443912        0.1671968055
 H          6.0133027103       -2.8612279418        1.1710343011
 H          6.5751971597       -2.7986740152       -0.5009687494
 C          5.6738362456       -0.9876468148        0.2174584161
 H          4.9393453084       -0.6868610707        0.9672450969
 H          6.6449381482       -0.6086300118        0.5470853013
 C          5.3352340152       -0.3080105402       -1.1080974331
 H          6.0327414787       -0.6387973074       -1.8799053798
 H          5.4739203759        0.7674949340       -0.9701621716
 C          3.8991683251       -0.5254220924       -1.6184374335
 H          3.6571549101        0.2878736208       -2.3091285383
 H          3.8094033659       -1.4574643178       -2.1720881799
 H          4.6403732363       -4.2996256394       -0.1290749543
 H          4.3450296180       -3.0929347648       -1.3610705094
 H          3.3823035444       -3.0261848377        1.5358021081
 H          2.4173363973       -3.5170639938        0.1551258794
 O          1.7367219245       -1.3154418719        1.3701850144
 C          1.0039743840       -0.1556503297        1.5446644058
 O          0.2057300357       -0.1945394211        2.5039423132
 H         -1.3235428212        0.3135614214        0.0731407699
 C         -1.3704549228        1.1613334008       -0.5919106974
 C         -0.5589866163        2.2603165226       -0.3355801339
 C         -0.6250563232        3.3516662358       -1.1893338558
 C         -1.4580743540        3.3163857211       -2.2955314180
 C         -2.2266098171        2.2019144402       -2.5742427947
 C         -2.1811551887        1.1094911068       -1.7120553018
 N         -2.9651562992       -0.0230429195       -1.9536038912
 S         -2.6967757900       -1.5111083002       -1.2495710060
 O         -1.2920565090       -1.8074631750       -1.0880071109
 O         -3.4432171077       -2.4256241634       -2.0890659909
 C         -3.5264507349       -1.3717322953        0.3194491049
 C         -2.8273803938       -1.4384497649        1.5065520618
 C         -3.5205789726       -1.3047035900        2.7003380855
 C         -4.8926960939       -1.1123280903        2.6869542134
 C         -5.5831194560       -1.0556387910        1.4849029610
 C         -4.8958237001       -1.1850259845        0.2900942471
 H         -5.3932673618       -1.1547575098       -0.6649403305
 H         -6.6510249891       -0.9083200772        1.4774463188
 H         -5.4253136393       -1.0070103342        3.6189594112
 H         -2.9733522318       -1.3438044634        3.6287383181
 H         -1.7567567201       -1.5777809896        1.4958494998
 H         -3.4052129976       -0.0769205819       -2.8587106101
 H         -2.8539024568        2.1698933433       -3.4517332126
 H         -1.4959225641        4.1656872122       -2.9608809140
 H         -0.0133887877        4.2188803908       -1.0035695570
 C          0.3729750773        2.1566883440        0.8481967746
 H         -0.2353610012        1.9849734520        1.7480409299
 C          1.2382673412        3.3785499067        1.0642742182
 C          0.6811159867        4.5711780485        1.7800369347
 C          1.7020180570        3.7036461542        2.4512164259
 H          2.7022564637        4.0881241222        2.5829698112
 H          1.3770778515        3.0519529092        3.2494282684
 H          0.9814876031        5.5553636250        1.4540495549
 H         -0.3393260675        4.5129337692        2.1270681228
 H          1.9362698262        3.5459906713        0.2527568162
 O          2.2707430020        1.7013321611       -1.2809725261
