  62
        -98.94192630
 C          1.2026324294        1.5567449951        0.5151837832
 C          2.1512997511        1.1896091091       -0.4680438120
 C          3.1746777759        0.2158245001       -0.0524387535
 C          3.1638325442       -0.2634127084        1.2029210456
 C          4.1243560541       -1.2353149415        1.8406075773
 C          4.5120997994       -2.4796945519        1.0289177652
 C          3.4267420068       -3.0118976057        0.0810308595
 H          2.4595663274       -2.5550549302        0.3040681265
 H          3.3131671846       -4.0861794444        0.2418437291
 C          3.7665895193       -2.7962494785       -1.3960155663
 H          3.1722047488       -3.4920043507       -1.9934401529
 H          4.8193200276       -3.0434069455       -1.5531162796
 C          3.4951481361       -1.3930844596       -1.9362043392
 H          2.4154829408       -1.2222837907       -1.9831627680
 H          3.8719741993       -1.3476506432       -2.9611120132
 C          4.1160907518       -0.2411277766       -1.1285379277
 H          4.2451362169        0.6106544520       -1.8017920818
 H          5.0872404736       -0.5194741188       -0.7263999136
 H          4.7742848922       -3.2562240911        1.7496169291
 H          5.4116695862       -2.2713217156        0.4507504924
 H          3.6398809975       -1.5433481020        2.7702525735
 H          5.0324498232       -0.6895604510        2.1133839136
 O          2.2380929793        0.1288013660        2.1230585223
 C          1.2183843742        1.0049241548        1.7938076403
 O          0.3997278435        1.2122459447        2.7144181660
 O          2.1464315663        1.6483577190       -1.6399961620
 C          0.0500376573        2.4724348190        0.1502231578
 C         -0.7937395154        1.8358645216       -0.9305344485
 C         -1.4551071893        2.5624504511       -1.9131696772
 C         -2.2302436584        1.9124904619       -2.8585536915
 C         -2.3802502031        0.5371642694       -2.8378915226
 C         -1.7260012846       -0.1975325887       -1.8558425687
 C         -0.9445865909        0.4570407098       -0.9187152410
 H         -0.4199240451       -0.1283078076       -0.1805780252
 N         -1.8328227518       -1.5944598391       -1.7886183453
 S         -1.8185828024       -2.3593223105       -0.3016955263
 O         -0.4940809586       -2.3451848565        0.2665636306
 O         -2.3723816344       -3.6685819995       -0.5748835320
 C         -2.9658118757       -1.4230140650        0.6935940372
 C         -2.5267504059       -0.5894103029        1.7010621063
 C         -3.4588640869        0.1607838295        2.4022496897
 C         -4.8050360086        0.0652399846        2.0886724579
 C         -5.2325139308       -0.7856357416        1.0800130945
 C         -4.3062616833       -1.5339360653        0.3738331807
 H         -4.5985981147       -2.2157662310       -0.4081306154
 H         -6.2809044957       -0.8640155212        0.8416246389
 H         -5.5234583097        0.6546743651        2.6361043101
 H         -3.1146414048        0.8180801866        3.1850409663
 H         -1.4749771385       -0.5239026164        1.9333507176
 H         -2.4960834345       -2.0088740311       -2.4260680091
 H         -2.9845197445        0.0350001958       -3.5774889090
 H         -2.7306484083        2.4874500659       -3.6227503473
 H         -1.3560238660        3.6352411924       -1.9438662444
 H         -0.5724085720        2.5519207040        1.0548293625
 C          0.5508015738        3.8537429451       -0.2187628238
 C         -0.2695303614        5.0669617985        0.0986840114
 C          0.9782213387        4.7815976569        0.8774223079
 H          1.8447113477        5.4052873374        0.7172708390
 H          0.8796846297        4.4252000874        1.8928437513
 H         -0.2582581815        5.8928322580       -0.5965647041
 H         -1.2173085549        4.9165375024        0.5932858832
 H          1.1365594231        3.8521601556       -1.1304074392
