  62
        -98.93714004
 C         -1.9659011500       -0.1167903312       -0.3805158264
 C         -2.8285769263        0.7353615129        0.3480088382
 C         -4.1834890177        0.2199441691        0.6276794769
 C         -4.5294667624       -1.0120466183        0.2131859888
 C         -5.8059565024       -1.8062362756        0.3967061384
 C         -7.0967221546       -1.1220156949        0.8401543408
 C         -7.6825893451       -0.1398178087       -0.1735004607
 H         -8.5416920988        0.3532099290        0.2868761145
 H         -8.0463602041       -0.7050969312       -1.0353635823
 C         -6.7190427235        0.9239583788       -0.6937556094
 H         -7.2670323213        1.5536815951       -1.3999809227
 H         -5.9110604094        0.4456613572       -1.2513837490
 C         -6.1149531202        1.8370247528        0.3714082545
 H         -6.9131624809        2.2903408150        0.9623303590
 H         -5.5852148167        2.6401839673       -0.1477100058
 C         -5.1141073685        1.1672710702        1.3291669185
 H         -5.6235236521        0.6671063408        2.1491247286
 H         -4.4859622649        1.9509411280        1.7620204546
 H         -6.9556278340       -0.6372408722        1.8016300340
 H         -7.8321801398       -1.9168449872        0.9917787448
 H         -5.5649852182       -2.5926194358        1.1207929758
 H         -5.9794562603       -2.3118005452       -0.5586612413
 O         -3.6521834804       -1.8118740706       -0.4621658011
 C         -2.3779313266       -1.3886993972       -0.7855649997
 O         -1.7143656030       -2.2239377436       -1.4339208001
 O         -2.5079464230        1.8785192123        0.7668843863
 C         -0.5532384985        0.2681946457       -0.7903913470
 C          0.4348602544        0.0613485132        0.3326212376
 C          0.3121589314        0.7310322447        1.5462704785
 C          1.2359217981        0.5271394946        2.5543329671
 C          2.3099878087       -0.3257291269        2.3659461312
 C          2.4448393478       -0.9947435518        1.1561378299
 C          1.5029437344       -0.8055151599        0.1533034510
 H          1.6151364802       -1.3434723393       -0.7760778820
 N          3.5310270569       -1.8619631516        0.9250605266
 S          4.5330551785       -1.5481052736       -0.3789615936
 O          3.7954888336       -1.6717134489       -1.6093100608
 O          5.6595014350       -2.4377751212       -0.2084175401
 C          5.0552631768        0.1410146921       -0.1362452301
 C          6.2662066301        0.3819687132        0.4832321195
 C          6.6433934455        1.6914273747        0.7336002157
 C          5.8008554434        2.7323434365        0.3737127789
 C          4.5864585055        2.4736986070       -0.2432238977
 C          4.2065567518        1.1665695378       -0.5041785764
 H          3.2704566761        0.9329609895       -0.9844735322
 H          3.9291632887        3.2818359078       -0.5210758492
 H          6.0915386076        3.7515847230        0.5735595816
 H          7.5887375124        1.8954415673        1.2100374374
 H          6.8894967611       -0.4582707843        0.7435177715
 H          4.0937139168       -2.0352215037        1.7465092903
 H          3.0352110781       -0.4782351746        3.1511018793
 H          1.1247884617        1.0459699904        3.4942586756
 H         -0.5197647171        1.4024211775        1.6923130319
 H         -0.2838667418       -0.4273833607       -1.5974807349
 C         -0.4508134272        1.6826791364       -1.3292336130
 C          0.6455032402        2.0112981187       -2.2954951559
 C         -0.7756655388        1.9413671001       -2.7677995574
 H         -1.2829359090        2.8590929016       -3.0245498359
 H         -1.0704445625        1.0960379912       -3.3733739697
 H          1.1169282525        2.9799659379       -2.2325220857
 H          1.3118984363        1.2132793746       -2.5907530652
 H         -0.7381857136        2.4389001428       -0.6111008224
