  62
        -98.94552080
 C         -0.8844376921       -1.7963515291       -0.0811687506
 C         -2.1913904325       -1.6884210681        0.4545078988
 C         -3.0359787215       -0.6278351456       -0.1037113636
 C         -2.5380008249        0.1913172344       -1.0470079380
 C         -3.2718552745        1.3249374084       -1.7115150666
 C         -3.2767151579        2.6270668441       -0.8986134391
 C         -4.1903675309        2.6292747317        0.3271844960
 H         -4.2788489830        3.6662186077        0.6578491136
 H         -5.1872870884        2.2909595151        0.0418446529
 C         -3.6711606208        1.7848287385        1.4995558592
 H         -3.7744335271        2.3511539940        2.4286146516
 H         -2.6019602316        1.5937210514        1.3708986846
 C         -4.4041780707        0.4575327882        1.6969228430
 H         -5.4386043677        0.6523585956        1.9905410977
 H         -3.9180745177       -0.0825123242        2.5135760071
 C         -4.4121917605       -0.4542084922        0.4637777014
 H         -4.7705062448       -1.4398735477        0.7720359294
 H         -5.0883311202       -0.0567110848       -0.2931747263
 H         -3.5962907929        3.4298264978       -1.5676083299
 H         -2.2565451339        2.8478716863       -0.5742011820
 H         -4.2992340299        1.0245811342       -1.9209077013
 H         -2.7638376832        1.5110056713       -2.6601832573
 O         -1.2778089701        0.0601389057       -1.5353568581
 C         -0.4104165300       -0.9104569442       -1.0510392866
 O          0.7221755484       -0.8738977657       -1.5659780141
 O         -2.6303363233       -2.4439760581        1.3641508310
 C          0.0442290157       -2.8277994229        0.5325020053
 C          1.3733129827       -2.1982063432        0.8749212336
 C          2.5950119644       -2.8412435923        0.7201422829
 C          3.7743273085       -2.1993428481        1.0581735172
 C          3.7672126842       -0.8961087533        1.5192742295
 C          2.5500387359       -0.2408003749        1.6678563283
 C          1.3709352345       -0.9064583958        1.3859308509
 H          0.4357138896       -0.3858919100        1.5294047693
 N          2.4818444610        1.0999328366        2.0928654991
 S          1.5179781011        2.1666183969        1.2417029982
 O          1.9617172373        3.4732946272        1.6889750492
 O          0.1222065630        1.8818774124        1.4670576104
 C          1.9056698293        2.0047943692       -0.4929813744
 C          3.1728594809        1.6474855997       -0.9047081156
 C          3.4415121168        1.5813652293       -2.2620571431
 C          2.4503457292        1.8835305657       -3.1811649977
 C          1.1872006238        2.2556399212       -2.7523806734
 C          0.9130089248        2.3170952470       -1.3970351168
 H         -0.0622001864        2.5838687929       -1.0221852334
 H          0.4110845657        2.4858678002       -3.4649087433
 H          2.6607802917        1.8235686739       -4.2374980956
 H          4.4231566547        1.2871218647       -2.5974114099
 H          3.9341726672        1.4125171707       -0.1795539544
 H          3.3739984636        1.5238482496        2.3044536672
 H          4.6898280656       -0.3893416870        1.7597880819
 H          4.7147891238       -2.7153626405        0.9395610916
 H          2.6298009894       -3.8424074742        0.3236103938
 H         -0.4491818251       -3.1031000771        1.4810623275
 C          0.1788694123       -4.1138297249       -0.2729728952
 C         -0.7784327087       -4.4497762678       -1.3761520097
 C          0.6422162521       -4.1020253450       -1.6981017419
 H          1.2992891534       -4.8914628181       -2.0322839977
 H          0.8452187237       -3.1394108603       -2.1403132916
 H         -1.0977380720       -5.4762814854       -1.4792740448
 H         -1.5471129395       -3.7279805969       -1.6123053308
 H          0.5043252168       -4.9497751398        0.3382707558
