  62
        -98.93792773
 C         -2.1429130709       -0.8895941090        0.7922867497
 C         -1.9047097206       -0.1900278793       -0.4183105604
 C         -2.1695487006        1.2547033607       -0.3834560109
 C         -2.5603270408        1.8416055010        0.7609981888
 C         -2.8321298509        3.3079620611        0.9607651283
 C         -4.2352759307        3.7536832810        0.5265821379
 C         -4.4654906504        3.8044252306       -0.9843233822
 H         -5.4029226503        4.3396199105       -1.1474330226
 H         -3.6713250103        4.3873006304       -1.4517932822
 C         -4.5597688303        2.4280496704       -1.6574038218
 H         -4.7418295805        1.6634353406       -0.8988502416
 H         -5.4128020601        2.4129130602       -2.3391841820
 C         -3.3249803101        2.0339014701       -2.4681907714
 H         -3.2051350399        2.7172878399       -3.3117055016
 H         -3.4816641800        1.0292662400       -2.8691634712
 C         -2.0202784203        2.0232064003       -1.6610543611
 H         -1.2450636001        1.5288496701       -2.2531151708
 H         -1.6949416503        3.0427638204       -1.4530835313
 H         -4.9701561209        3.0881861311        0.9851466179
 H         -4.3960003308        4.7557939711        0.9305447776
 H         -2.7249892811        3.4993206814        2.0308088283
 H         -2.0797933407        3.8909234609        0.4280191184
 O         -2.7307734211        1.1438056814        1.9162975590
 C         -2.5180193012       -0.2247490886        1.9613117994
 O         -2.6811955615       -0.7280998983        3.0920601895
 H          0.3991039189       -1.1615649288        1.5454720604
 C          0.5662724191       -1.8927790990        0.7616604606
 C         -0.5037730108       -2.6542603292        0.3068093006
 C         -0.2721072906       -3.5763930894       -0.7042794691
 C          0.9882719495       -3.7030548696       -1.2640579087
 C          2.0393828094       -2.9130662795       -0.8353559487
 C          1.8202082692       -2.0046008792        0.1892099910
 N          2.8840238891       -1.1491800091        0.5989100310
 S          2.9100566594        0.2682090706       -0.3332231694
 O          1.9343764093        1.2108186908        0.1774035201
 O          2.8040920697       -0.0964784198       -1.7216170093
 C          4.5558878993        0.8660875307        0.0061968608
 C          5.6152851995        0.2871891904       -0.6653715188
 C          6.9020628194        0.7180790505       -0.3859711386
 C          7.1074264792        1.7143036808        0.5570947912
 C          6.0342322391        2.2858628010        1.2232250308
 C          4.7445965691        1.8577958109        0.9486383006
 H          3.8798673990        2.2797705511        1.4355924802
 H          6.1954929089        3.0619624512        1.9540918906
 H          8.1096933792        2.0493532308        0.7726108713
 H          7.7388342895        0.2772534203       -0.9033131283
 H          5.4048141096       -0.4763798798       -1.3955400186
 H          2.7562383789       -0.8533847089        1.5595370809
 H          3.0138568595       -2.9730524397       -1.2910366185
 H          1.1471085897       -4.4136250499       -2.0609916085
 H         -1.0877868905       -4.1705050195       -1.0829784491
 C         -1.8547899910       -2.3778567989        0.9204520402
 H         -1.7771352012       -2.5580265486        2.0059045703
 C         -2.9602387609       -3.2877797491        0.4086224402
 C         -4.3844173809       -2.8213135591        0.3730951997
 C         -3.6423344605       -3.0605066894       -0.9055793600
 H         -3.9111285304       -3.9231010696       -1.4978217199
 H         -3.3273578204       -2.2105167396       -1.4893288202
 H         -5.1591512509       -3.5165733390        0.6594830897
 H         -4.5822173509       -1.8006888290        0.6679185494
 H         -2.8023761810       -4.3204905490        0.7039232205
 O         -1.4924754304       -0.7297360196       -1.4770265302
