  62
        -98.94021628
 C         -2.2571579090       -1.0465221992       -0.3661552048
 C         -3.5818779266       -1.0827255344        0.1361569465
 C         -4.4837768257       -0.0263711876       -0.3391022836
 C         -4.0208005842        0.8887729644       -1.2099088739
 C         -4.8107349193        2.0543384218       -1.7296119760
 C         -4.6142911851        3.2937696534       -0.8454293857
 C         -4.7991353604        3.0221356985        0.6476712738
 H         -4.0023289427        2.3569278083        0.9891677250
 H         -4.6679811182        3.9727625304        1.1691747841
 C         -6.1605268281        2.4178285915        1.0194668853
 H         -6.5455206002        2.9389782887        1.8984285980
 H         -6.8713365495        2.5808273510        0.2087241582
 C         -6.1210500740        0.9284964605        1.3668837481
 H         -5.3422193904        0.7472850758        2.1118576311
 H         -7.0782392135        0.6602707514        1.8216479216
 C         -5.8911634094       -0.0263972951        0.1884718475
 H         -6.6021008642        0.1951596601       -0.6097268381
 H         -6.0776685766       -1.0439062540        0.5437821885
 H         -3.6011167653        3.6720641349       -1.0013664617
 H         -5.3182029159        4.0631746036       -1.1678259479
 H         -4.4646965071        2.2807756522       -2.7394824894
 H         -5.8643002242        1.7847251464       -1.7680541805
 O         -2.7483155643        0.8836554696       -1.6829519443
 C         -1.8273684100       -0.0668664899       -1.2616142954
 O         -0.6948931766        0.0699624712       -1.7625220369
 O         -3.9897548371       -1.9573749796        0.9466760662
 C         -1.2724500210       -2.0904536925        0.1356543036
 C         -0.2797499025       -1.4036074877        1.0413828031
 C         -0.7123677805       -0.9894224245        2.2997489351
 C          0.1403965669       -0.3201464097        3.1547849919
 C          1.4399504885       -0.0426823679        2.7677244412
 C          1.8825841889       -0.4520808135        1.5157280940
 C          1.0261634683       -1.1357244569        0.6619217509
 H          1.3861010142       -1.4265894837       -0.3101041995
 N          3.2145372795       -0.2128943081        1.1244811341
 S          3.5163144066        0.3635460090       -0.4371859791
 O          2.7549607771        1.5692535753       -0.6770462113
 O          3.3601039539       -0.7151958617       -1.3777744871
 C          5.2485862298        0.7631797298       -0.2758651381
 C          5.6284600341        2.0740948482       -0.0594173637
 C          6.9749682970        2.3669947706        0.0908617636
 C          7.9138047297        1.3486176236        0.0258885400
 C          7.5177107077        0.0373331715       -0.1923215092
 C          6.1732044621       -0.2616478772       -0.3446788843
 H          5.8186603263       -1.2629332090       -0.5248602473
 H          8.2507514646       -0.7513579860       -0.2450549926
 H          8.9609243674        1.5789047719        0.1429173239
 H          7.2855008453        3.3859426868        0.2571620885
 H          4.8633971137        2.8332264051       -0.0251913501
 H          3.6979542233        0.3748875599        1.7923708081
 H          2.1078657271        0.4858189896        3.4314812427
 H         -0.2083026579       -0.0057470616        4.1270247247
 H         -1.7330362825       -1.1962290214        2.5912753279
 H         -1.8713494450       -2.7770825975        0.7511477359
 C         -0.6404493444       -2.8774169005       -0.9906784238
 C          0.0063282271       -4.1953031862       -0.6897049227
 C         -1.2870535633       -4.1503393250       -1.4449631753
 H         -1.2791105746       -4.3830872230       -2.4992226841
 H         -2.1873823591       -4.4613496226       -0.9353420039
 H          0.9071354536       -4.4579152555       -1.2230981792
 H         -0.0161618570       -4.5376458083        0.3339002514
 H         -0.1872425297       -2.2519962276       -1.7509465196
