  62
        -98.93719669
 C          1.0198321813        1.7739977334        0.4860339652
 C          1.3966511634        0.5300710484        1.0516422951
 C          2.6899207717       -0.0197304762        0.6179377219
 C          3.4287593635        0.6730261005       -0.2678051392
 C          4.7360841396        0.2261650686       -0.8582671273
 C          4.4874708534       -0.8203092597       -1.9630093986
 C          5.0292301077       -2.2128664830       -1.6403898730
 H          4.6093452830       -2.9058473315       -2.3724268406
 H          6.1132701662       -2.2113446782       -1.7727281770
 C          4.7288824737       -2.7310472625       -0.2310571539
 H          5.4216091532       -2.2803945803        0.4811060259
 H          4.9414104402       -3.8021918420       -0.2353557296
 C          3.2951052944       -2.5148734060        0.2708921721
 H          2.6045907337       -2.4056114969       -0.5651916344
 H          2.9942931674       -3.4085841216        0.8190783476
 C          3.1189886824       -1.3244207438        1.2312111517
 H          2.3268031833       -1.5674283656        1.9454176497
 H          4.0411793024       -1.1735932942        1.7994736469
 H          4.9440339364       -0.4818103594       -2.8943621600
 H          3.4120196083       -0.8777869494       -2.1439961509
 H          5.2212555691        1.1092666060       -1.2745903185
 H          5.3715939139       -0.1840269188       -0.0767182522
 O          3.0256120894        1.8550733707       -0.8005980948
 C          1.8073492295        2.4263622067       -0.4620812324
 O          1.5661086560        3.4911428243       -1.0610075437
 H         -1.4450561764        0.0472652648        0.2294102213
 C         -1.7421329523        0.8210509861       -0.4632987761
 C         -1.2761014125        2.1165668939       -0.2723711250
 C         -1.6514676090        3.1023113474       -1.1757895403
 C         -2.4699393576        2.7882540258       -2.2468827851
 C         -2.9421151962        1.5006582753       -2.4264605801
 C         -2.5747786502        0.5077716520       -1.5247713228
 N         -3.0214881145       -0.8149535079       -1.6747454113
 S         -3.5599486765       -1.6376010105       -0.3158048596
 O         -4.4172421010       -2.6785487455       -0.8453121917
 O         -4.1755398186       -0.7366624762        0.6314049999
 C         -2.1158423135       -2.3987206964        0.3897419418
 C         -1.8842261724       -2.2810055603        1.7449006533
 C         -0.7912073665       -2.9278503459        2.2972312236
 C          0.0436938207       -3.6796957223        1.4874944908
 C         -0.1988789587       -3.7842472710        0.1262630212
 C         -1.2909577109       -3.1408677208       -0.4319260057
 H         -1.5154068817       -3.2012741601       -1.4841925268
 H          0.4599539831       -4.3651293519       -0.4994126702
 H          0.8911490199       -4.1860017623        1.9224317168
 H         -0.5926291530       -2.8346053102        3.3526023596
 H         -2.5540327740       -1.6775834148        2.3369175917
 H         -3.6394035265       -0.9643641961       -2.4596554974
 H         -3.5870339781        1.2620208970       -3.2588890381
 H         -2.7501639238        3.5597485697       -2.9482844185
 H         -1.2868714023        4.1084969086       -1.0515620998
 C         -0.3299816893        2.3543104854        0.8785733196
 H         -0.6747711893        1.7424396737        1.7239121031
 C         -0.2472629665        3.7967084955        1.3258498220
 C         -1.4012579289        4.3943666431        2.0723768298
 C         -0.1168576576        4.1024234174        2.7866656570
 H          0.5075370599        4.9312329287        3.0848265453
 H         -0.0922293868        3.2684754965        3.4728570447
 H         -1.6618452894        5.4243278372        1.8824122770
 H         -2.2494700358        3.7557963927        2.2700773349
 H          0.2965359569        4.4314414978        0.6376303938
 O          0.6848089759       -0.0893736684        1.8864568764
