  62
        -98.94523721
 C         -1.4843134167       -0.8032030438       -0.5313080726
 C         -2.6148343102       -1.0172829495        0.3002443126
 C         -3.3476627085        0.1763758537        0.7372065329
 C         -2.9003688307        1.3897263439        0.3667212644
 C         -3.5654613752        2.6917690583        0.7059742048
 C         -4.5703893780        3.1038507073       -0.3789208711
 C         -5.5363202928        1.9887435164       -0.7795458092
 H         -6.2163693734        2.4008991027       -1.5280706682
 H         -4.9729591947        1.1871506978       -1.2624791758
 C         -6.3495065313        1.4049938174        0.3842180023
 H         -6.3292030345        2.0914553250        1.2314183265
 H         -7.3907967779        1.3081456466        0.0699191722
 C         -5.8930417300        0.0194464094        0.8451011243
 H         -5.8208726337       -0.6481843091       -0.0170799031
 H         -6.6592324509       -0.3868813331        1.5106924316
 C         -4.5596743784       -0.0273253903        1.6023432073
 H         -4.5741688213        0.6965902575        2.4200418724
 H         -4.4552843125       -1.0278826699        2.0323420475
 H         -5.1346963078        3.9653238721       -0.0170635459
 H         -4.0134524765        3.4106438798       -1.2671761696
 H         -4.0688945287        2.5953596300        1.6661909252
 H         -2.7931198501        3.4587198241        0.7885240266
 O         -1.8057702149        1.5616266601       -0.4116102910
 C         -1.0676206919        0.4822390478       -0.8768876790
 O         -0.0997138263        0.8212189557       -1.5853967366
 O         -2.9981541956       -2.1653969625        0.6546514998
 C         -0.7247856408       -2.0486797353       -0.9594302273
 C          0.3568021521       -2.3571832181        0.0499962679
 C          0.3619650756       -3.5646771354        0.7370374505
 C          1.3277769174       -3.8233126685        1.6933955320
 C          2.2873960850       -2.8752669690        1.9940908634
 C          2.2921739616       -1.6620924071        1.3111477098
 C          1.3464368562       -1.4229869653        0.3256845948
 H          1.3503182687       -0.4821505873       -0.1982547277
 N          3.2604076796       -0.6951340367        1.6064544632
 S          2.9775029670        0.9558665490        1.5165696807
 O          3.7846306365        1.5079821380        2.5874136761
 O          1.5690383677        1.2655097099        1.5609295880
 C          3.7291562927        1.4109293624       -0.0321088939
 C          5.1111069714        1.4482045735       -0.0666082820
 C          5.7469900286        1.7788246200       -1.2509354467
 C          4.9936554058        2.0653943803       -2.3800581841
 C          3.6097387809        2.0252535809       -2.3284152762
 C          2.9652718775        1.6957367167       -1.1444463305
 H          1.8881902357        1.6517920644       -1.0884811624
 H          3.0174180933        2.2454035463       -3.2023859403
 H          5.4865372988        2.3228699397       -3.3043986769
 H          6.8237700628        1.8124615148       -1.2916929327
 H          5.6558538780        1.2325677374        0.8374978828
 H          3.8578019882       -0.9225384630        2.3874676036
 H          3.0269041646       -3.0648951185        2.7573582238
 H          1.3225393717       -4.7641768671        2.2225810739
 H         -0.4103490968       -4.2918850367        0.5345007247
 H         -1.4599704500       -2.8643038370       -0.9132658281
 C         -0.1584457483       -1.9958907236       -2.3633372572
 C          0.1184327788       -3.2821956488       -3.0804814007
 C         -1.0187771771       -2.4095782058       -3.5178797894
 H         -0.9295491768       -1.8653762526       -4.4458539382
 H         -2.0254116886       -2.7357290896       -3.2994293008
 H          0.9928817889       -3.3411221427       -3.7097561719
 H         -0.1182878753       -4.2024468294       -2.5682913559
 H          0.5245233230       -1.1726887402       -2.5236733708
