  62
        -98.94665589
 C         -1.4894025335       -1.6271400329       -0.1170720967
 C         -1.5915368717       -0.5417581711       -1.0228223844
 C         -2.8856414141        0.1561688159       -1.0402491311
 C         -3.8976291929       -0.2710364255       -0.2653761467
 C         -5.2829373808        0.3135184545       -0.2061636247
 C         -5.4168829650        1.5143337420        0.7396877230
 C         -4.7621492614        2.8048903075        0.2456928667
 H         -5.1107626882        3.0257471508       -0.7637137234
 H         -5.1099899264        3.6111886614        0.8945706500
 C         -3.2271531868        2.7823060451        0.2674712851
 H         -2.8799874133        1.9693443250        0.9100585383
 H         -2.8501586190        3.7095312043        0.7054133040
 C         -2.5694067195        2.6380283036       -1.1050182631
 H         -2.7914780991        3.5199269967       -1.7110172142
 H         -1.4869670938        2.5992234516       -0.9539685974
 C         -3.0002391752        1.3884495072       -1.8853490743
 H         -4.0202619761        1.5076311960       -2.2515925220
 H         -2.3312145005        1.2717964719       -2.7414290938
 H         -4.9968518995        1.2431726768        1.7111014556
 H         -6.4839096291        1.7030449926        0.8790156413
 H         -5.6013924841        0.6017668235       -1.2083558035
 H         -5.9396149530       -0.4819752203        0.1530438120
 O         -3.7752927333       -1.3422301241        0.5628911931
 C         -2.5714819230       -2.0148949611        0.6797559417
 O         -2.5914021707       -2.9491100360        1.5076545593
 H          0.4615028188        0.1905506401        0.3611317132
 C          0.9582169440       -0.4424163127        1.0776371070
 C          0.7028271697       -1.8054325561        1.1003235925
 C          1.3386686597       -2.5882245403        2.0579537784
 C          2.2088530735       -2.0187051891        2.9691960892
 C          2.4708022156       -0.6612610954        2.9356135171
 C          1.8366812825        0.1325926700        1.9861419175
 N          2.0686038623        1.5132801049        1.9475928810
 S          2.1033719254        2.3406898742        0.4931698828
 O          2.8427996228        3.5476750899        0.8035747917
 O          0.7674231617        2.5376950218       -0.0038152976
 C          3.0734809959        1.3160264154       -0.5964109021
 C          4.4226533390        1.2055827443       -0.3173134038
 C          5.2100436417        0.3929610948       -1.1148437696
 C          4.6364671832       -0.2942250518       -2.1744234381
 C          3.2835253866       -0.1670336897       -2.4437943874
 C          2.4875739923        0.6449603476       -1.6488990610
 H          1.4286103026        0.7484424814       -1.8288339493
 H          2.8348030985       -0.6988472983       -3.2681231338
 H          5.2472887477       -0.9307291300       -2.7951652088
 H          6.2639692260        0.2962136962       -0.9095478956
 H          4.8327599815        1.7680936078        0.5057556910
 H          2.7838136121        1.8418318925        2.5791399171
 H          3.1493475388       -0.2131753597        3.6452400962
 H          2.6905699851       -2.6367661867        3.7112896831
 H          1.1324228757       -3.6473359845        2.0962144201
 C         -0.2249308776       -2.4430659953        0.0910457238
 H         -0.5574835291       -3.4030973131        0.5103039779
 C          0.5412817862       -2.7211536849       -1.1890001685
 C          1.4209893753       -3.9302405637       -1.2738682341
 C          0.1416374610       -3.8772481431       -2.0531362289
 H          0.1876260132       -3.7580871373       -3.1250534540
 H         -0.6852553628       -4.4875522626       -1.7190544885
 H          2.3539827527       -3.8483657585       -1.8094499655
 H          1.4617762080       -4.5858243613       -0.4176254241
 H          0.8742339299       -1.8208113985       -1.6860587798
 O         -0.6745227512       -0.1593997099       -1.7959099309
