  62
        -98.94410948
 C          2.4202931603        1.1066136103        0.2488744308
 C          2.4535406306       -0.2305154094       -0.2152066901
 C          3.5502570107       -1.0564853496        0.3066767995
 C          4.4259787005       -0.5336029901        1.1840373299
 C          5.5858191305       -1.2540549003        1.8163397896
 C          6.8485933206       -1.2887210396        0.9444557397
 C          6.7820602309       -2.2276274687       -0.2607518209
 H          7.7975452010       -2.3201287383       -0.6509570208
 H          6.4684918010       -3.2186455790        0.0688207184
 C          5.8623236610       -1.7443500881       -1.3907756007
 H          6.3727982311       -1.8582454874       -2.3497626007
 H          5.6556545108       -0.6793670582       -1.2624944800
 C          4.5348113411       -2.4956627582       -1.4932719914
 H          3.9489229412       -2.0493119878       -2.3008974112
 H          4.7227608913       -3.5400528580       -1.7523052821
 C          3.6861028709       -2.4549049992       -0.2157003515
 H          2.6834167210       -2.8178977092       -0.4563307419
 H          4.1188637009       -3.1052173297        0.5443559681
 H          7.0659100205       -0.2737194993        0.6040649405
 H          7.6754726306       -1.6096405099        1.5820954096
 H          5.2901279406       -2.2718936806        2.0720910689
 H          5.8189495603       -0.7172869609        2.7384017700
 O          4.3421451802        0.7496424796        1.6252460508
 C          3.3499738301        1.5994110898        1.1656694812
 O          3.3971276899        2.7505504795        1.6440375320
 O          1.6183665208       -0.7141094290       -1.0242515406
 C          1.3351396403        2.0581302304       -0.2265997687
 C         -0.0064619697        1.5142436399        0.1999246507
 C         -0.2819841499        1.4230246790        1.5624149206
 C         -1.4792806399        0.8975630185        2.0064841801
 C         -2.4284301697        0.4483704090        1.1034629997
 C         -2.1588122195        0.5234312899       -0.2552253902
 C         -0.9581668895        1.0660745304       -0.6997508397
 H         -0.7626221694        1.1122816412       -1.7592434797
 N         -3.1150143193        0.0853332204       -1.1834310507
 S         -4.0073077491       -1.2992561699       -0.8800502318
 O         -3.2645587791       -2.2718291003       -0.1127413223
 O         -4.4758681389       -1.7294610691       -2.1797176321
 C         -5.3962468494       -0.7058339207        0.0655297185
 C         -5.7899054894       -1.3846875016        1.2020705579
 C         -6.8836951496       -0.9206102022        1.9162563481
 C         -7.5620392597        0.2080323380        1.4828584288
 C         -7.1558347396        0.8771244388        0.3379249193
 C         -6.0646497195        0.4171064295       -0.3816778209
 H         -5.7194623994        0.9090496101       -1.2754811205
 H         -7.6851596397        1.7552056390        0.0045981098
 H         -8.4116678898        0.5683858775        2.0410749189
 H         -7.2006830096       -1.4404023129        2.8061349777
 H         -5.2273763293       -2.2531814217        1.5063319174
 H         -2.8004818892        0.1151778511       -2.1423010506
 H         -3.3587934297        0.0249745286        1.4446548392
 H         -1.6784762400        0.8336273177        3.0655683700
 H          0.4649315100        1.7635794886        2.2670343710
 H          1.5050139501        3.0026281901        0.3086092020
 C          1.4590991104        2.3118823915       -1.7139345385
 C          0.8254359403        3.5286633018       -2.3167698278
 C          2.3161842403        3.4447353019       -2.1891435776
 H          2.9046212605        3.3051301526       -3.0836820576
 H          2.8026180201        4.0494314815       -1.4376158271
 H          0.3907585705        3.4512904824       -3.3019035079
 H          0.2967772802        4.1950020613       -1.6523022274
 H          1.4753260007        1.3993105419       -2.2985811491
