  62
        -98.94437284
 C          1.9541313696        0.8701611802        0.0843553907
 C          2.4044168001       -0.4695131397        0.1637981303
 C          3.8166211201       -0.6470950293        0.5344375404
 C          4.5744753597        0.4352546609        0.7886027109
 C          6.0370430196        0.3995222114        1.1233684811
 C          6.8999924398        0.5056798922       -0.1417374187
 C          6.4880784703       -0.4593887475       -1.2533808691
 H          5.4960439702       -0.1821563077       -1.6172597192
 H          7.1853018704       -0.3178194269       -2.0820278090
 C          6.4794387108       -1.9376523177       -0.8397600097
 H          7.0664112207       -2.0718280978        0.0695357103
 H          6.9603758412       -2.5241997272       -1.6254211499
 C          5.0840696310       -2.5299676983       -0.6331493402
 H          4.4618415311       -2.3166023382       -1.5061380002
 H          5.1827394114       -3.6164868183       -0.5608333106
 C          4.3359961306       -2.0547518491        0.6188747199
 H          3.4540081509       -2.6908079795        0.7404489395
 H          4.9727646506       -2.1794110492        1.4971708000
 H          7.9402103298        0.3231117625        0.1339226714
 H          6.8242474294        1.5246920223       -0.5280465083
 H          6.2610055192        1.2445621812        1.7765435615
 H          6.2606972099       -0.5251038488        1.6518898208
 O          4.0986249592        1.7049952908        0.7242340914
 C          2.7841726191        1.9551438604        0.3664366113
 O          2.4774292687        3.1642324003        0.3432242317
 H         -1.5312433797       -0.6499754608       -0.7901409904
 C         -1.4061244399       -0.4011133112        0.2495714897
 C         -0.4235413003        0.4873078190        0.6545389002
 C         -0.2883581107        0.7599002785        2.0142921304
 C         -1.1034055706        0.1441040378        2.9429145600
 C         -2.0786628401       -0.7498233624        2.5352090595
 C         -2.2258907998       -1.0257861619        1.1817063094
 N         -3.1904130794       -1.9489212821        0.7492127889
 S         -4.1469948093       -1.6555196719       -0.5873293812
 O         -5.1938830590       -2.6496514824       -0.5041171517
 O         -3.3549585592       -1.6607352211       -1.7897899111
 C         -4.8311157400       -0.0343349423       -0.2977834406
 C         -4.2115723204        1.0763623281       -0.8334443901
 C         -4.7232725009        2.3316068978       -0.5434814697
 C         -5.8371402311        2.4539867871        0.2725615102
 C         -6.4499963007        1.3275686066        0.8006665897
 C         -5.9413661102        0.0706598269        0.5177608893
 H         -6.3939363899       -0.8308961934        0.8977516588
 H         -7.3189747808        1.4258111060        1.4311777096
 H         -6.2309775215        3.4331513668        0.4950979106
 H         -4.2491314312        3.2083116082       -0.9552054492
 H         -3.3508881302        0.9427566787       -1.4675773900
 H         -3.7322833794       -2.3649095226        1.4922176986
 H         -2.7100497801       -1.2409238829        3.2600259192
 H         -0.9807429608        0.3603935875        3.9934748001
 H          0.4778299790        1.4548767387        2.3310216608
 C          0.5172585595        1.1677426998       -0.3094409194
 H          0.3940265591        2.2549490497       -0.1991372389
 C          0.2849333499        0.7974070403       -1.7587417695
 C         -0.7385553703        1.5336881602       -2.5678733894
 C          0.7213780997        1.7488411409       -2.8303657991
 H          1.1505775500        1.3449223914       -3.7350737592
 H          1.1663595193        2.6812961909       -2.5139333187
 H         -1.2793079107        2.3305434498       -2.0794005092
 H         -1.3174542000        0.9806830803       -3.2931328197
 H          0.4223378703       -0.2608491196       -1.9508833999
 O          1.6702526705       -1.4669592299       -0.0611121702
