  62
        -98.94622059
 C         -1.1320366596       -1.2919558603       -0.0482943290
 C         -1.6148128600       -0.4116101902        0.9538030908
 C         -2.4161325605        0.7268398393        0.4933133305
 C         -2.6262480505        0.9007319490       -0.8239683996
 C         -3.3774526909        2.0403954885       -1.4572383099
 C         -4.8987042508        1.8418990679       -1.5011811099
 C         -5.6093839810        1.9724277579       -0.1533732100
 H         -5.3221641814        2.9136293581        0.3164155198
 H         -6.6801155210        2.0244367974       -0.3602547900
 C         -5.3483073405        0.8095994682        0.8140770703
 H         -6.2930337904        0.4846486679        1.2556391603
 H         -4.9450866301       -0.0407834118        0.2592467805
 C         -4.4006010707        1.1438960088        1.9658298703
 H         -4.2625401304        0.2418422890        2.5671374305
 H         -4.8532261711        1.9074874488        2.6020703401
 C         -3.0154683309        1.6352722193        1.5242818302
 H         -3.0798196913        2.6538515892        1.1417916900
 H         -2.3582459609        1.6302831498        2.3968196803
 H         -5.3056038911        2.5963643776       -2.1785159201
 H         -5.1097842304        0.8605522577       -1.9325571897
 H         -3.1437477413        2.9675879887       -0.9324592001
 H         -3.0071056509        2.1219078484       -2.4818900299
 O         -2.1444961701        0.0410119990       -1.7577158594
 C         -1.3920845796       -1.0733034207       -1.4033023191
 O         -1.0369157593       -1.7612271107       -2.3798615389
 O         -1.3789989400       -0.5678505699        2.1821303408
 C         -0.2768088992       -2.4515583398        0.4224928013
 C          1.2032314607       -2.1416454392        0.3553285713
 C          2.0902353409       -2.7766593687        1.2197520514
 C          3.4434299208       -2.4987329581        1.1724029114
 C          3.9387367805       -1.5574856581        0.2865342713
 C          3.0622627103       -0.9143897887       -0.5774722389
 C          1.7098760604       -1.2263531192       -0.5529608389
 H          1.0567423202       -0.7330822896       -1.2550320490
 N          3.5121378999        0.0761356813       -1.4704028291
 S          2.7003631693        1.5432744410       -1.4694276495
 O          1.4241203294        1.4217253103       -2.1258176995
 O          3.6366276189        2.4723665413       -2.0656506296
 C          2.4873766991        1.9097753713        0.2617555504
 C          3.5562121488        2.4357837519        0.9617960504
 C          3.4324958787        2.6273521321        2.3280283403
 C          2.2570525888        2.2700687218        2.9723468604
 C          1.1935800390        1.7437579512        2.2560915904
 C          1.3058871792        1.5678059309        0.8862044505
 H          0.4916498994        1.1668587605        0.3028719805
 H          0.2814334091        1.4424524809        2.7473410404
 H          2.1661861687        2.4022695520        4.0388692103
 H          4.2540478985        3.0439146626        2.8881012303
 H          4.4524534587        2.6969255621        0.4226319004
 H          4.5104479398        0.2309826317       -1.4443973491
 H          4.9913937604       -1.3209656677        0.2634172913
 H          4.1190512910       -3.0036186077        1.8453104116
 H          1.7108051512       -3.4881003987        1.9366186016
 H         -0.5321896492       -2.5867021897        1.4835813513
 C         -0.5650481386       -3.7508944401       -0.3068976285
 C         -0.4665636781       -5.0588428299        0.4168236718
 C         -1.8082655083       -4.5190927005        0.0243465916
 H         -2.3488748381       -4.9926903009       -0.7810956983
 H         -2.4452040885       -4.1223495406        0.8017536615
 H         -0.0787822877       -5.9119106698       -0.1181785980
 H         -0.2095655782       -5.0412725296        1.4647139318
 H         -0.2644528686       -3.7259324202       -1.3469264685
