  62
        -98.94437571
 C          1.8418802488       -0.7807427615       -0.2172642671
 C          2.3531356849        0.5379131620       -0.1545988815
 C          3.7862376129        0.6767427286       -0.4450284496
 C          4.5124832772       -0.4075130927       -0.7724568857
 C          5.9775164129       -0.4220834294       -1.1156024893
 C          6.9044823021       -0.4750026535        0.1065296788
 C          6.9917564537        0.8208139413        0.9137715221
 H          7.8315444653        0.7126884321        1.6031157991
 H          7.2247942604        1.6497396847        0.2446957592
 C          5.7293294272        1.1495350560        1.7230068184
 H          5.1111573424        0.2535020663        1.8149618434
 H          6.0125700311        1.4473776946        2.7351467229
 C          4.8787166806        2.2785738852        1.1407451994
 H          5.4428212916        3.2136421324        1.1669777536
 H          3.9942745482        2.4018294026        1.7712843076
 C          4.4036088034        2.0345231439       -0.2976731162
 H          3.6358523398        2.7750551950       -0.5356857711
 H          5.2337866124        2.1545804282       -0.9934674241
 H          6.5776073867       -1.2886018395        0.7581070303
 H          7.9058012551       -0.7203966416       -0.2548212656
 H          6.1473705749       -1.3193109834       -1.7146273550
 H          6.2211194000        0.4514212235       -1.7209280802
 O          3.9742412283       -1.6537516349       -0.8510414426
 C          2.6380247804       -1.8740821987       -0.5578968924
 O          2.2814562654       -3.0665306379       -0.6461065307
 O          1.6545329988        1.5465491833        0.1255752612
 C          0.3814807919       -1.0423920881        0.1064603506
 C         -0.5058263197       -0.2181992438       -0.7931189129
 C         -0.2759630741       -0.2501002432       -2.1670580971
 C         -1.0475533946        0.5001993628       -3.0314273606
 C         -2.0771117179        1.2883654407       -2.5467125213
 C         -2.3228448170        1.3186110528       -1.1802036121
 C         -1.5460186180        0.5607719156       -0.3122202882
 H         -1.7505559859        0.6176785198        0.7435691886
 N         -3.3576021629        2.1098920317       -0.6621133952
 S         -4.2694520560        1.5677550459        0.6237068255
 O         -5.5148633236        2.2977473354        0.5151724123
 O         -3.5548141825        1.7335584796        1.8639035732
 C         -4.5534607769       -0.1664035739        0.3091914152
 C         -4.3006740525       -1.0864579308        1.3049590681
 C         -4.5294986862       -2.4300814014        1.0537307547
 C         -5.0030035646       -2.8287695629       -0.1861431771
 C         -5.2576908859       -1.8915662126       -1.1759025175
 C         -5.0343885431       -0.5471694170       -0.9282976757
 H         -5.2321833570        0.2023549173       -1.6768738257
 H         -5.6281263612       -2.2048068782       -2.1386634259
 H         -5.1756888277       -3.8753706624       -0.3816623251
 H         -4.3350619239       -3.1586181171        1.8247650275
 H         -3.9265975477       -0.7343788270        2.2523636160
 H         -3.9160499707        2.5923585120       -1.3501046284
 H         -2.6760255658        1.8839745590       -3.2186891204
 H         -0.8491119612        0.4715174937       -4.0922156578
 H          0.5300036242       -0.8645938370       -2.5450683392
 H          0.2053009089       -2.1044383930       -0.1189837756
 C          0.1374950340       -0.8116645500        1.5830446784
 C         -0.9229447547       -1.5838616101        2.3057179042
 C          0.5237562809       -1.8859668539        2.5533716930
 H          0.9594263199       -1.5967442085        3.4980921238
 H          0.9353764969       -2.7968128416        2.1429649165
 H         -1.4801667925       -1.0817572933        3.0824599397
 H         -1.4989631898       -2.2950383982        1.7334591848
 H          0.3134050292        0.2163048639        1.8804335644
