  62
        -98.94367369
 C         -2.1050794656        0.7564193588       -0.0254680408
 C         -2.7566999612       -0.0758404410       -0.9658848630
 C         -3.6818396156       -1.0725127414       -0.4107536717
 C         -3.8294380596       -1.1601729480        0.9242051681
 C         -4.7896255203       -2.0794034969        1.6206681542
 C         -6.1480943277       -1.3977358796        1.8388704613
 C         -6.7152632007       -0.7309550513        0.5855362183
 H         -7.6871868373       -0.3107772259        0.8527523756
 H         -6.0707407306        0.1045659090        0.3029054742
 C         -6.8786857620       -1.6721297153       -0.6160985507
 H         -7.8559375248       -1.4951474263       -1.0700420161
 H         -6.8608189468       -2.7095031183       -0.2800158525
 C         -5.8353874616       -1.4792899496       -1.7180816996
 H         -6.1640931835       -2.0353923025       -2.6001223942
 H         -5.7868202768       -0.4235218523       -1.9966671291
 C         -4.4160034466       -1.9537875642       -1.3819452286
 H         -4.4479564287       -2.9837231436       -1.0201099372
 H         -3.8309023110       -1.9333969267       -2.3064765577
 H         -6.0308996127       -0.6327783482        2.6098344978
 H         -6.8533997062       -2.1454042366        2.2060641432
 H         -4.9157968364       -2.9832500681        1.0276770779
 H         -4.3676610908       -2.3475071310        2.5906665818
 O         -3.1470761963       -0.3775630224        1.7986403727
 C         -2.2738825003        0.6039660550        1.3509049365
 O         -1.7194400392        1.2517454249        2.2576594843
 H          0.1327730167       -0.4860147383       -0.3195306415
 C          0.7547511950        0.3400104548        0.0063201788
 C          0.2354374943        1.6288423145       -0.0150518334
 C          1.0556420476        2.6748258563        0.3886659269
 C          2.3490682515        2.4306440145        0.8168911883
 C          2.8554893373        1.1445016230        0.8463342878
 C          2.0482292503        0.0922116485        0.4351102286
 N          2.5733101766       -1.2229250521        0.4487234332
 S          3.6846806251       -1.5330331644       -0.7819660690
 O          3.3235975807       -0.8410934641       -1.9998367517
 O          3.7707966333       -2.9744941240       -0.8687026265
 C          5.2132647029       -0.8820760463       -0.1466443271
 C          5.7851798331       -1.5015991303        0.9475437675
 C          6.9720819617       -0.9977517106        1.4552442496
 C          7.5630838770        0.1086686310        0.8628413745
 C          6.9773083583        0.7166367927       -0.2371655095
 C          5.7897191327        0.2184242628       -0.7498071750
 H          5.2941184329        0.6592427474       -1.5996231603
 H          7.4383740918        1.5761931373       -0.6963241553
 H          8.4865215752        0.4989908812        1.2606289138
 H          7.4314951636       -1.4679747412        2.3097095956
 H          5.2942554109       -2.3613146597        1.3723454749
 H          1.8504021559       -1.9286555110        0.4068764722
 H          3.8568596806        0.9474197116        1.1921914870
 H          2.9699481240        3.2538302841        1.1351467268
 H          0.6794802528        3.6845008520        0.3699652510
 C         -1.1686046946        1.8385908650       -0.5269302118
 H         -1.1449601343        1.7188812511       -1.6215020674
 C         -1.7306073647        3.2070328461       -0.1987389756
 C         -1.4894153712        4.3688427345       -1.1141843673
 C         -2.8498749020        3.7460776810       -1.0366132415
 H         -3.6434142954        4.2919380642       -0.5487842318
 H         -3.1837358898        3.1389715776       -1.8658009190
 H         -0.9033481806        4.1919430655       -2.0034627659
 H         -1.3512265592        5.3474840865       -0.6798941468
 H         -1.7709621215        3.3920709518        0.8688385248
 O         -2.5714254854        0.0099075588       -2.2111271052
