  62
        -98.93578043
 C         -2.3078039238       -1.0512314171        0.1338539701
 C         -3.5571817549       -0.9337739939        0.7933242644
 C         -4.5489868597       -0.0065715034        0.2156639985
 C         -4.2092731972        0.6986400351       -0.8787239459
 C         -5.0233529186        1.7271090704       -1.6180417724
 C         -5.0831628817        3.0753692670       -0.8827389580
 C         -5.3436244518        2.9774435077        0.6180809503
 H         -4.5597484314        2.3731698241        1.0783934784
 H         -5.2617691235        3.9848725210        1.0346428218
 C         -6.7110810440        2.4203662193        1.0069894027
 H         -6.7954333130        2.5000305069        2.0937814575
 H         -7.4909229766        3.0459964756        0.5671748862
 C         -6.9773089136        0.9646187002        0.6172210155
 H         -7.2264283700        0.8787389669       -0.4370901154
 H         -7.8609913530        0.6363037909        1.1721410057
 C         -5.8550653428       -0.0051959818        0.9731733637
 H         -6.2412716477       -1.0287793858        0.8949906036
 H         -5.5920024918        0.1216376075        2.0294415872
 H         -5.8555867319        3.6885321030       -1.3501201628
 H         -4.1227528341        3.5781772599       -1.0220359814
 H         -4.5337285350        1.8792336561       -2.5826316861
 H         -6.0220286027        1.3460713677       -1.8099744503
 O         -2.9834194646        0.5809824119       -1.4621229241
 C         -2.0060884382       -0.2806072302       -0.9899151386
 O         -0.9557985129       -0.2565946707       -1.6596717886
 O         -3.8416516349       -1.5792928839        1.8377192241
 C         -1.2905150668       -2.0011257345        0.7433152598
 C          0.0211404710       -1.2864766432        0.9385238464
 C          0.1824240378       -0.4377796298        2.0296383725
 C          1.3568459430        0.2693269869        2.2051947359
 C          2.3893785821        0.1547193815        1.2905245562
 C          2.2287466109       -0.6720456326        0.1872894804
 C          1.0589033023       -1.4036116393        0.0284442377
 H          0.9394915607       -2.0350538987       -0.8381111475
 N          3.2632255193       -0.7879088094       -0.7552364848
 S          4.0804589983        0.5923798133       -1.2455249952
 O          3.2606971223        1.7782724862       -1.1592361743
 O          4.6117693439        0.2686079017       -2.5520996481
 C          5.4342781285        0.7022562980       -0.0908355213
 C          6.2294050741       -0.4124591384        0.0911128458
 C          7.2928598348       -0.3392423256        0.9763426019
 C          7.5451163386        0.8416962824        1.6585798019
 C          6.7407286046        1.9535019050        1.4620520347
 C          5.6743451434        1.8860808064        0.5786731976
 H          5.0189047034        2.7235248595        0.3982785890
 H          6.9381740818        2.8713157816        1.9923302360
 H          8.3734153002        0.8960954746        2.3472533396
 H          7.9205484523       -1.2018917814        1.1317290693
 H          6.0018807096       -1.3094194141       -0.4600652096
 H          3.0156325709       -1.3563501490       -1.5525046877
 H          3.3014297797        0.7158659740        1.4118934309
 H          1.4700980810        0.9203870049        3.0587700125
 H         -0.6310120923       -0.3318316337        2.7342528634
 H         -1.7036481851       -2.2350834398        1.7376840554
 C         -1.1406928100       -3.3293942014        0.0166644769
 C         -2.3420110746       -4.0246645312       -0.5488200473
 C         -1.2892221314       -3.4824586457       -1.4662012371
 H         -0.6414990374       -4.1844901158       -1.9716317730
 H         -1.5134787478       -2.6029096572       -2.0490254776
 H         -2.4245310256       -5.0945199649       -0.4313121739
 H         -3.2865467134       -3.5030698026       -0.4945008107
 H         -0.3974660165       -3.9614980382        0.4936181951
