  62
        -98.93562692
 C         -2.6440190570       -1.0440063676        0.7415619477
 C         -2.5781450090        0.2495722339        1.3204211017
 C         -3.7006910237        1.1519025228        1.0396242421
 C         -4.7131720936        0.7152708385        0.2687269773
 C         -5.8954887895        1.5416861300       -0.1452160608
 C         -5.6336149169        2.2562109571       -1.4783690311
 C         -4.2964529843        2.9955344206       -1.5313899051
 H         -3.4823122991        2.2678257543       -1.4871211305
 H         -4.2336973115        3.4852774982       -2.5056838375
 C         -4.1031353999        4.0387879098       -0.4219258451
 H         -5.0678060143        4.2955461926        0.0173405311
 H         -3.6955298272        4.9495010579       -0.8658033093
 C         -3.1384128240        3.6146458663        0.6871881572
 H         -2.2007401003        3.2672978445        0.2445736017
 H         -2.9071273722        4.4959836329        1.2915227886
 C         -3.6540339257        2.5285796699        1.6399376964
 H         -2.9563755121        2.4654786540        2.4801440868
 H         -4.6343247173        2.8141176822        2.0269460692
 H         -5.6441334767        1.5122024640       -2.2781854478
 H         -6.4476081550        2.9607184967       -1.6584702979
 H         -6.1127021443        2.2704006109        0.6332782032
 H         -6.7547417814        0.8790644722       -0.2611958581
 O         -4.7472902985       -0.5299801138       -0.2651909091
 C         -3.7111540481       -1.4370264361       -0.0672824198
 O         -3.8818200419       -2.5216518306       -0.6515820002
 O         -1.6210283558        0.6261559690        2.0505454578
 C         -1.4708276403       -1.9663469842        1.0231421273
 C         -0.4052358470       -1.7594219293       -0.0230821545
 C         -0.6899810167       -1.9054274347       -1.3776016117
 C          0.2906436727       -1.6790292566       -2.3257894701
 C          1.5673648743       -1.2990298135       -1.9484485214
 C          1.8573318662       -1.1352482853       -0.6009072018
 C          0.8717606111       -1.3702527777        0.3508544805
 H          1.0948314612       -1.2266654078        1.3995545983
 N          3.1543283380       -0.7574412368       -0.2005521923
 S          3.8719242417        0.5385260383       -1.0173455296
 O          2.9797237705        1.6770117377       -1.0270562836
 O          4.3177654479        0.0758105500       -2.3071391409
 C          5.2767873114        0.8474974564        0.0333327496
 C          5.1708675851        1.7824188209        1.0455631592
 C          6.2579514685        1.9924469552        1.8794421891
 C          7.4239429622        1.2658736752        1.6896576103
 C          7.5147813431        0.3313391761        0.6688001130
 C          6.4321334763        0.1169908652       -0.1691562022
 H          6.4581980052       -0.5922282184       -0.9797442712
 H          8.4238948702       -0.2295023110        0.5235784490
 H          8.2677849755        1.4315554788        2.3406165455
 H          6.1909665162        2.7203013870        2.6720504197
 H          4.2482280202        2.3310402185        1.1516655764
 H          3.1992368808       -0.5943480774        0.7971732504
 H          2.3334199476       -1.1082493925       -2.6821454144
 H          0.0588239582       -1.7962557821       -3.3740935048
 H         -1.6881085518       -2.1909700657       -1.6753833714
 H         -1.0625194666       -1.6084107043        1.9817942164
 C         -1.8644135688       -3.4232608867        1.2160461855
 C         -1.4558315691       -4.5268750473        0.2915899735
 C         -0.8276267032       -4.4190642973        1.6463813685
 H         -1.0868773216       -5.1456882991        2.4012246075
 H          0.1956012085       -4.0769465832        1.6925312313
 H         -2.1725562444       -5.3128171198        0.1089983460
 H         -0.8543158409       -4.2804119257       -0.5689239439
 H         -2.8464732278       -3.5196389963        1.6669356130
