  62
        -98.94104962
 C         -2.3294423286       -0.9107784054       -0.4267456530
 C         -3.2356432320       -0.2269620054        0.4254586420
 C         -3.5727702065        1.1528913157        0.0589081877
 C         -3.0118464978        1.6920069220       -1.0383399186
 C         -3.2144081669        3.1062055970       -1.4989905972
 C         -2.1540665953        4.0420353658       -0.9026757069
 C         -1.9833673122        3.9001845681        0.6099665137
 H         -1.5659533631        2.9137250164        0.8278512486
 H         -1.2382708403        4.6354982433        0.9216663779
 C         -3.2727195582        4.1022141195        1.4185935225
 H         -3.0512489419        4.7432065377        2.2743835612
 H         -4.0143815081        4.6193703251        0.8088550407
 C         -3.8818580184        2.8132454975        1.9730062582
 H         -3.1131190160        2.2427100818        2.5004400164
 H         -4.6484398194        3.0854748432        2.7033579442
 C         -4.5410821904        1.8905078500        0.9406434185
 H         -5.2511952925        2.4601129216        0.3377467436
 H         -5.0922106370        1.1201082201        1.4876942904
 H         -1.1931514666        3.8206389105       -1.3738696575
 H         -2.4257278240        5.0709758131       -1.1464061091
 H         -3.1343831589        3.1276393947       -2.5871982024
 H         -4.2103762059        3.4368037332       -1.2098877382
 O         -2.1579417902        1.0080137223       -1.8394710880
 C         -1.7843488649       -0.3004856788       -1.5573467932
 O         -0.9986506451       -0.7790239277       -2.3988698690
 O         -3.7510259558       -0.7577096660        1.4468405863
 C         -1.9686449653       -2.3283742988       -0.0158203556
 C         -0.7213561674       -2.3259865845        0.8368099041
 C         -0.7539972147       -2.8207549801        2.1355385464
 C          0.3812416670       -2.8014483933        2.9258281047
 C          1.5640544810       -2.2774628079        2.4389686222
 C          1.6087231985       -1.7840648420        1.1387737198
 C          0.4734252865       -1.8203419585        0.3424874363
 H          0.5228381250       -1.4264464554       -0.6616211592
 N          2.8043908666       -1.2677837941        0.6154249124
 S          2.7235074977        0.0395475484       -0.4531715722
 O          1.7194085012        0.9805639816       -0.0093958347
 O          2.6064532957       -0.4665604897       -1.7963241933
 C          4.3568394102        0.7226623456       -0.2261502317
 C          5.4203799766        0.1097580334       -0.8621432597
 C          6.6978371924        0.6090700222       -0.6647709582
 C          6.8903471962        1.7070211235        0.1608819296
 C          5.8136753695        2.3130001746        0.7904684292
 C          4.5333057061        1.8169333875        0.5988466490
 H          3.6651758405        2.2582487227        1.0617165996
 H          5.9653833779        3.1684473103        1.4287823212
 H          7.8853907741        2.0944688246        0.3122657300
 H          7.5365821381        0.1418252273       -1.1549640989
 H          5.2190738299       -0.7337153554       -1.5017677557
 H          3.5151054613       -1.1288113579        1.3210486037
 H          2.4486715841       -2.2490429104        3.0568831267
 H          0.3412967129       -3.1858546636        3.9336346493
 H         -1.6841718504       -3.2029622703        2.5293441465
 H         -2.8019348903       -2.6630080812        0.6182860872
 C         -1.8256321392       -3.3026325320       -1.1671419166
 C         -2.0227180741       -4.7649339224       -0.9057225210
 C         -3.0423591155       -3.9998234132       -1.6937836373
 H         -3.1144936921       -4.1718252573       -2.7570677736
 H         -3.9883314979       -3.7752001138       -1.2227894609
 H         -1.3919319619       -5.4684672845       -1.4267616687
 H         -2.2801906387       -5.0632586795        0.0992292845
 H         -1.0673241873       -3.0148847798       -1.8836942173
