  62
        -98.93902419
 C         -2.1024299021       -0.7799205531        0.5054307970
 C         -1.9214012829       -0.0639906619       -0.7003648707
 C         -1.8646795656        1.4036372714       -0.5887404957
 C         -1.9771702130        1.9713498107        0.6242193875
 C         -1.9659245704        3.4377125940        0.9610900857
 C         -3.3911558699        4.0169748176        0.9664848983
 C         -3.8848131933        4.5275015279       -0.3864244120
 H         -4.9365016303        4.7974066006       -0.2673936308
 H         -3.3391428782        5.4365764790       -0.6470790218
 C         -3.7602483674        3.5325652205       -1.5425745061
 H         -4.0715322202        2.5412754800       -1.2083313949
 H         -4.4513066395        3.8425946421       -2.3286357069
 C         -2.3414687086        3.4593748798       -2.1269650713
 H         -2.3873851412        3.5924327328       -3.2099224912
 H         -1.7482324056        4.2866609210       -1.7385235097
 C         -1.6087417503        2.1351526328       -1.8776763730
 H         -1.8767427883        1.4173989527       -2.6600364488
 H         -0.5266788496        2.2894193872       -1.9604408605
 H         -4.0655532696        3.2406352672        1.3364818998
 H         -3.4275210837        4.8467394878        1.6752107892
 H         -1.5518302914        3.5160265208        1.9688575632
 H         -1.3191658816        3.9809991805        0.2784445059
 O         -2.1774338712        1.2434028477        1.7600992417
 C         -2.2138883050       -0.1378069098        1.7358511359
 O         -2.3554223208       -0.6728393936        2.8562873168
 O         -1.8142968895       -0.6254197062       -1.8231916070
 C         -2.0536197615       -2.2970559415        0.4918310713
 C         -0.7449805828       -2.7367116390       -0.1220574985
 C         -0.6315350185       -3.7945045747       -1.0146315355
 C          0.5955853515       -4.1070293801       -1.5745696305
 C          1.7241496869       -3.3679699846       -1.2723137724
 C          1.6242600715       -2.3209615979       -0.3622924462
 C          0.4028954691       -2.0339194432        0.2215788411
 H          0.3388616140       -1.2179570772        0.9278690387
 N          2.7504899679       -1.5547700366       -0.0099503145
 S          2.5228691542        0.0847240935        0.3309468050
 O          2.0799251323        0.2188681026        1.6975976906
 O          1.6972925596        0.7077059944       -0.6783417272
 C          4.2054333982        0.6619118616        0.1939870898
 C          5.0707325275        0.4332044181        1.2473270545
 C          6.3883548478        0.8472171864        1.1339429358
 C          6.8167652616        1.4791549430       -0.0242423506
 C          5.9364744841        1.7041501916       -1.0718163884
 C          4.6174924123        1.2909401503       -0.9654357311
 H          3.8948105291        1.4493205261       -1.7499497129
 H          6.2708442441        2.1989101133       -1.9693648823
 H          7.8425451178        1.8009817417       -0.1097278914
 H          7.0746679759        0.6762527448        1.9474661063
 H          4.6885589145       -0.0529599264        2.1297620625
 H          3.5263957952       -1.6902607147       -0.6443654428
 H          2.6730297520       -3.5947440565       -1.7340845530
 H          0.6691523199       -4.9261451081       -2.2738122768
 H         -1.5062596119       -4.3635116704       -1.2843965501
 H         -2.0668464832       -2.6131419945        1.5459421276
 C         -3.2696714399       -2.8683242855       -0.2073202527
 C         -3.8246542053       -4.1986442730        0.2024076288
 C         -4.5643492097       -2.9410462588        0.5431702296
 H         -5.4795943425       -2.7185395180        0.0156453285
 H         -4.5582579888       -2.6024468718        1.5693462045
 H         -4.2375914611       -4.8416698397       -0.5601287375
 H         -3.3259099009       -4.7236082175        1.0030623643
 H         -3.3111306312       -2.5924041594       -1.2547417561
