  62
        -98.94360471
 C         -1.5339065255       -1.5756743236       -0.1963308712
 C         -1.3721622283       -0.1736232919       -0.3327245016
 C         -2.6115351124        0.5909553274       -0.5380198250
 C         -3.7973594395       -0.0406145050       -0.5751548744
 C         -5.1396893800        0.6059513214       -0.7851170470
 C         -5.7560767081        1.1880193380        0.4946193189
 C         -5.0934406641        2.4639218626        1.0165678337
 H         -5.0286575823        3.1940889687        0.2093719038
 H         -5.7568381789        2.8789622076        1.7780730140
 C         -3.7043454533        2.2513770451        1.6353726877
 H         -3.5654367469        1.1919382083        1.8632867015
 H         -3.6421050663        2.7917533905        2.5826548024
 C         -2.5419169765        2.7266332747        0.7633330415
 H         -1.6069509932        2.4847389178        1.2750360234
 H         -2.5942460257        3.8109678349        0.6444705088
 C         -2.4958555973        2.0823415481       -0.6277046292
 H         -3.2847567650        2.4893143686       -1.2596728469
 H         -1.5261632956        2.3092020211       -1.0763025689
 H         -5.7337172464        0.4212332926        1.2726236171
 H         -6.8038028588        1.4105565704        0.2790211500
 H         -5.8052817883       -0.1726575112       -1.1641227672
 H         -5.0564140440        1.3889480468       -1.5393005891
 O         -3.9111105834       -1.3885974732       -0.4300003308
 C         -2.7936526278       -2.1793421824       -0.2123948972
 O         -3.0506277223       -3.3891908331       -0.0468216823
 O         -0.2678319302        0.4225903265       -0.2887293203
 C         -0.3455697054       -2.4902967636        0.0493391390
 C          0.5605837104       -1.8663555946        1.0808118926
 C          0.0954962331       -1.7336311313        2.3865485554
 C          0.8745431107       -1.1323797047        3.3559248819
 C          2.1300886141       -0.6434133970        3.0408936219
 C          2.6035071262       -0.7736050017        1.7407059042
 C          1.8248993322       -1.3916269351        0.7724443831
 H          2.2113917743       -1.4716934759       -0.2289725892
 N          3.8768218284       -0.2992686279        1.3991835617
 S          4.2256090522        0.2711847828       -0.1277914783
 O          4.3120527627       -0.8253160629       -1.0608688366
 O          5.4505232358        1.0234971295        0.0596553573
 C          2.9297892079        1.3991749314       -0.6045199805
 C          2.4005721536        1.3150071770       -1.8741053982
 C          1.4560225336        2.2465066122       -2.2708566971
 C          1.0574593334        3.2405471688       -1.3928559211
 C          1.5909323057        3.3054225054       -0.1158406066
 C          2.5396864584        2.3800996435        0.2836349610
 H          2.9748390830        2.4131332779        1.2695347271
 H          1.2663932145        4.0723196340        0.5695123882
 H          0.3228345632        3.9676564513       -1.7037301839
 H          1.0287769733        2.1872112800       -3.2598945533
 H          2.7306863650        0.5201474752       -2.5239442175
 H          4.3490963657        0.2296261865        2.1168378962
 H          2.7380846602       -0.1647515652        3.7934428934
 H          0.4994008761       -1.0344632138        4.3636495029
 H         -0.8935578926       -2.1003064153        2.6276667898
 H         -0.7733069581       -3.4100667965        0.4815905553
 C          0.3920081353       -2.9046548971       -1.2147007711
 C         -0.3419211871       -3.1048207826       -2.5059189124
 C          0.6190159933       -1.9651758590       -2.3590155671
 H          1.5657869355       -2.0190354032       -2.8776854011
 H          0.2254607509       -0.9649031391       -2.2711392747
 H         -0.0630620713       -3.9398570145       -3.1309295262
 H         -1.3996887567       -2.8847827477       -2.5172943878
 H          1.1912619661       -3.6091931961       -1.0024626087
