  62
        -98.94472140
 C         -2.0757700403       -0.3966175576       -0.1609369769
 C         -3.0686116672       -0.8319841822        0.7530694544
 C         -4.2424649933        0.0359263397        0.8905306796
 C         -4.3024404163        1.1897731823        0.2013266225
 C         -5.4163129020        2.1996116702        0.2605276877
 C         -6.6033475694        1.8757730965       -0.6569941026
 C         -7.4826561946        0.7121443399       -0.1973145346
 H         -7.7824456481        0.8724248813        0.8387980179
 H         -8.3889096861        0.7362265484       -0.8057882061
 C         -6.8293171728       -0.6697498592       -0.3389865539
 H         -7.5407654269       -1.3642318878       -0.7914219989
 H         -5.9750767577       -0.6007294535       -1.0163903958
 C         -6.3661765589       -1.2904320119        0.9790153353
 H         -7.2316703214       -1.4867858098        1.6156322782
 H         -5.8871743438       -2.2473941480        0.7571904570
 C         -5.3668939753       -0.4312155637        1.7647507284
 H         -4.9366939692       -1.0450830071        2.5597848530
 H         -5.8761158902        0.4195169092        2.2170554110
 H         -7.2247039257        2.7725758747       -0.7137328739
 H         -6.2232847406        1.6713273766       -1.6606434436
 H         -5.7661305271        2.2994908202        1.2884573708
 H         -4.9876010260        3.1533806259       -0.0548156033
 O         -3.3133851953        1.5903230387       -0.6397243656
 C         -2.1876242861        0.8069518918       -0.8572193484
 O         -1.3882965182        1.2933560676       -1.6800966406
 O         -2.9765334880       -1.8955871977        1.4212632959
 C         -0.8421530845       -1.2672683301       -0.3382690967
 C          0.3321510477       -0.5560096729        0.2867301058
 C          0.5314493184       -0.6545047268        1.6612335347
 C          1.5635087028        0.0284539648        2.2768049727
 C          2.4164920346        0.8280650925        1.5361582640
 C          2.2252460481        0.9330800353        0.1647984874
 C          1.1988449043        0.2315293436       -0.4552869476
 H          1.0520229893        0.3368428261       -1.5183139785
 N          3.0791955478        1.7491074675       -0.5926078764
 S          4.7196415418        1.7062815129       -0.2865510726
 O          5.0242013177        2.5154737050        0.8678407663
 O          5.3477559164        2.1126667653       -1.5241364655
 C          5.0848288348       -0.0046276133        0.0657005651
 C          5.5928529156       -0.3623646588        1.2976876209
 C          5.8435491086       -1.7005027689        1.5568873272
 C          5.5797193925       -2.6528744708        0.5851542159
 C          5.0722062395       -2.2772659549       -0.6494814958
 C          4.8206387036       -0.9411330723       -0.9142103549
 H          4.4314693083       -0.6156659329       -1.8654999388
 H          4.8691188920       -3.0198612780       -1.4042963024
 H          5.7713363438       -3.6944968847        0.7892323854
 H          6.2399910174       -1.9949179779        2.5152349750
 H          5.7821282812        0.4104728466        2.0248239506
 H          2.8719364486        1.7641204501       -1.5795363198
 H          3.2129344649        1.3857140145        2.0015039479
 H          1.7040848634       -0.0566099233        3.3435647692
 H         -0.1458288669       -1.2638317847        2.2429616700
 H         -1.0430129603       -2.1719980221        0.2510512523
 C         -0.6218210917       -1.6667153154       -1.7820463365
 C          0.3201422886       -2.7898304268       -2.0941574456
 C         -1.1562189344       -2.9797886103       -2.2665827001
 H         -1.5578393030       -3.0336596841       -3.2675185446
 H         -1.6792570581       -3.6004014801       -1.5538890747
 H          0.9347107995       -2.7175677319       -2.9783060062
 H          0.7992848986       -3.2807733583       -1.2609079239
 H         -0.6664787261       -0.8332636829       -2.4722012747
