  62
        -98.94514362
 C         -1.8575209796       -1.2673041805       -0.0549944705
 C         -3.0493935798       -0.8591872010        0.5889231095
 C         -3.7742494600        0.2532250190       -0.0405604902
 C         -3.2779051401        0.8120319894       -1.1597128400
 C         -3.8787116004        1.9911982494       -1.8677560197
 C         -3.2962650908        3.3112199695       -1.3429010694
 C         -3.3025749608        3.4266220091        0.1815611306
 H         -2.6224129006        2.6803151191        0.5996021205
 H         -2.8953463511        4.4076978291        0.4363128709
 C         -4.6870820308        3.2633443286        0.8244613906
 H         -4.8177424410        4.0431680183        1.5777099008
 H         -5.4635792908        3.4065950286        0.0722709306
 C         -4.9047059805        1.9223323983        1.5279010102
 H         -4.0801279904        1.7336268184        2.2204726702
 H         -5.8190988705        1.9951578779        2.1226480202
 C         -5.0527110301        0.7028577485        0.6091758499
 H         -5.3866266200       -0.1369702917        1.2257724097
 H         -5.8181657902        0.9013344185       -0.1437928001
 H         -2.2632332408        3.3979516698       -1.6883588894
 H         -3.8670946010        4.1362033294       -1.7727302692
 H         -3.6553435004        1.9043569398       -2.9323196798
 H         -4.9582731104        1.9792329891       -1.7310359998
 O         -2.1307796100        0.3927530598       -1.7511856901
 C         -1.3916966498       -0.6591145001       -1.2212312004
 O         -0.3654182397       -0.9375167297       -1.8650316704
 O         -3.4844751396       -1.3965840014        1.6438170294
 C         -1.0607617594       -2.4144400605        0.5355466892
 C          0.3651131205       -2.0139005802        0.8283694393
 C          1.4250795307       -2.9076213999        0.7278745091
 C          2.7175110106       -2.5050926597        1.0171545292
 C          2.9869585103       -1.2035607097        1.3975254796
 C          1.9363748801       -0.2998432900        1.4922146898
 C          0.6394956102       -0.7127563202        1.2277018497
 H         -0.1733407400       -0.0019123005        1.3144232898
 N          2.2025898697        1.0364900300        1.8350541101
 S          3.5064465696        1.7797573405        1.0892361303
 O          4.7021100996        1.5213889506        1.8540018203
 O          3.1304491592        3.1723856405        0.9738783007
 C          3.6605080298        1.0305700210       -0.5236022498
 C          4.8861693999        0.5374954314       -0.9241318200
 C          4.9943398601       -0.0576083183       -2.1705180201
 C          3.8777179301       -0.1603545183       -2.9858598401
 C          2.6538468600        0.3412785212       -2.5707168100
 C          2.5441753298        0.9492752709       -1.3312641299
 H          1.5972452697        1.3387791206       -0.9920131098
 H          1.7727953800        0.2404103912       -3.1837464501
 H          3.9575329603       -0.6371293181       -3.9500377503
 H          5.9447769102       -0.4475757180       -2.4975737702
 H          5.7233636599        0.6227763514       -0.2503738699
 H          1.3894074496        1.6340219798        1.8145882603
 H          3.9878220102       -0.8712994595        1.6216179597
 H          3.5280194108       -3.2129290994        0.9380382691
 H          1.2378099710       -3.9230396099        0.4199369088
 H         -1.5526986793       -2.6500439908        1.4919236991
 C         -1.1561614391       -3.6282077703       -0.3687222911
 C         -1.2057350187       -5.0105829604        0.2082493585
 C         -2.4364855989       -4.4064867606       -0.3957916014
 H         -2.7908670688       -4.7860036104       -1.3423985015
 H         -3.2260399790       -4.0813041109        0.2661889687
 H         -0.7152889985       -5.8102439302       -0.3262236017
 H         -1.1680754987       -5.1079610907        1.2828252185
 H         -0.6391323991       -3.4829368599       -1.3106413211
