  62
        -98.93919372
 C          2.4723842724        1.0475989753        0.3741006008
 C          2.6041723287       -0.1301660376        1.1556792542
 C          3.8027670058       -0.9400362249        0.9151725379
 C          4.7137110974       -0.5286005074        0.0148856225
 C          6.0039419448       -1.2245939584       -0.3241871728
 C          5.8552330229       -2.3495218203       -1.3575124970
 C          5.1719888764       -3.6175463717       -0.8441831732
 H          5.3298544725       -4.3935131883       -1.5957394462
 H          5.6617723077       -3.9474530425        0.0724374950
 C          3.6637645712       -3.4688364398       -0.5987650093
 H          3.1379377149       -4.3249179350       -1.0274455563
 H          3.2952659897       -2.5780682196       -1.1132373656
 C          3.2658221016       -3.3863009220        0.8751765609
 H          2.1832772711       -3.2422469238        0.9309398839
 H          3.5059260267       -4.3281912631        1.3736576733
 C          3.9352540685       -2.2414475909        1.6467785640
 H          3.4289374423       -2.1344786498        2.6093432901
 H          4.9852065649       -2.4718591016        1.8267329285
 H          5.3053606226       -1.9624168888       -2.2183200377
 H          6.8593735481       -2.6151495114       -1.6957547645
 H          6.4546348092       -1.6218312681        0.5856954990
 H          6.6675525582       -0.4624496358       -0.7379811377
 O          4.5670217207        0.6197996954       -0.6938944799
 C          3.4425409968        1.4228719172       -0.5559876680
 O          3.4556598898        2.4213434453       -1.3008762566
 O          1.7626356253       -0.4825584199        2.0262243057
 C          1.2201103136        1.8809358022        0.5894841682
 C          0.2239096646        1.6436360179       -0.5209490271
 C          0.3639562688        2.2317520045       -1.7740651142
 C         -0.5740427231        1.9991957806       -2.7631318731
 C         -1.6743839925        1.1963990252       -2.5203474368
 C         -1.8162935681        0.5928225948       -1.2761735242
 C         -0.8647281897        0.8136783840       -0.2903843184
 H         -0.9827218108        0.3318001058        0.6699825400
 N         -2.9085736021       -0.2476972756       -1.0084156166
 S         -3.5646014803       -0.2374736510        0.5478835672
 O         -3.6172608422        1.1164734814        1.0518307498
 O         -2.8578511297       -1.1969471895        1.3584659688
 C         -5.2127091516       -0.8314059453        0.2126266404
 C         -5.4288844232       -2.1940779779        0.1315535488
 C         -6.7045864735       -2.6538119120       -0.1546948273
 C         -7.7366851957       -1.7490233543       -0.3547719380
 C         -7.5048158855       -0.3843845886       -0.2689886384
 C         -6.2312660437        0.0821900631        0.0163415640
 H         -6.0061459852        1.1329991892        0.1033342465
 H         -8.3097464635        0.3163778025       -0.4214070302
 H         -8.7287304271       -2.1099888248       -0.5756082516
 H         -6.8892315609       -3.7139695772       -0.2190727369
 H         -4.5980859857       -2.8583571232        0.3045610854
 H         -3.6247537076       -0.2012707559       -1.7203585572
 H         -2.4131980834        1.0297055466       -3.2895831742
 H         -0.4531450752        2.4599269584       -3.7319820399
 H          1.2240801891        2.8514306827       -1.9713554886
 H          0.7746071021        1.4904474573        1.5154329095
 C          1.5040428513        3.3573789451        0.7827269031
 C          0.4338890524        4.2227012009        1.3754053194
 C          1.6617706030        3.8974873881        2.1707075961
 H          2.3889892930        4.6774469062        2.3396558152
 H          1.5680483509        3.2018295092        2.9921604439
 H          0.3158746066        5.2272682490        0.9993464149
 H         -0.4944122997        3.7449707935        1.6537545235
 H          2.1304910919        3.7846515647        0.0109238328
