  62
        -98.94445336
 C         -2.6826432314       -1.2034636426        0.1318063467
 C         -2.5187606459       -0.2534124307       -0.9057319452
 C         -3.3156217666        0.9764457775       -0.7813183997
 C         -4.1520864732        1.1236122244        0.2615311377
 C         -4.9698069460        2.3499406175        0.5421589526
 C         -4.2073478253        3.3272022687        1.4479663019
 C         -2.7771307218        3.6122780704        0.9881886328
 H         -2.3499789833        4.3373658736        1.6843984368
 H         -2.1809593481        2.7001934781        1.0733537711
 C         -2.6653007607        4.1544006662       -0.4435678890
 H         -3.6310485017        4.5424813652       -0.7700484796
 H         -1.9605918941        4.9885928958       -0.4474214687
 C         -2.1547556563        3.1399623892       -1.4689748812
 H         -1.2296937230        2.6826671347       -1.1048225920
 H         -1.9078687412        3.6803249849       -2.3872505157
 C         -3.1367309695        2.0226382683       -1.8449430192
 H         -4.0980316953        2.4576030027       -2.1259413422
 H         -2.7272768191        1.5009384947       -2.7150388578
 H         -4.7677548106        4.2625346642        1.4954526341
 H         -4.1637671549        2.9045051714        2.4542391725
 H         -5.2255281924        2.8335727982       -0.3983999507
 H         -5.8881703890        2.0434875377        1.0455575041
 O         -4.3095447923        0.1753013791        1.2192674255
 C         -3.5637369250       -0.9896232705        1.1959290378
 O         -3.7773309449       -1.7529401676        2.1583934640
 H          0.1994155086       -1.7982459247       -1.4828931206
 C          0.4727899637       -1.7294821738       -0.4418634323
 C         -0.4461440878       -2.0785420010        0.5360354296
 C         -0.0794893401       -1.9462403071        1.8723342435
 C          1.1734155859       -1.4741390557        2.2169731406
 C          2.0797761236       -1.1059172316        1.2375309051
 C          1.7174708107       -1.2215726513       -0.0971069921
 N          2.6204121981       -0.8084970372       -1.0970368289
 S          3.1557158629        0.7837397491       -0.9888361989
 O          2.2048753851        1.6218252032       -0.2952446254
 O          3.4929210340        1.1702661845       -2.3418719793
 C          4.6578605362        0.6513684293       -0.0400105795
 C          5.6461518294       -0.1967043739       -0.5004385892
 C          6.8232120169       -0.3072940526        0.2222674172
 C          6.9929550527        0.4303011009        1.3846559632
 C          5.9930490035        1.2803566087        1.8315206849
 C          4.8124219300        1.3943803632        1.1137559407
 H          4.0045131203        2.0371796688        1.4255767047
 H          6.1263979630        1.8535607495        2.7349564549
 H          7.9098322833        0.3423587623        1.9457838549
 H          7.6031345148       -0.9671767097       -0.1219493911
 H          5.4752510756       -0.7481988960       -1.4097224302
 H          2.2751033169       -0.9856112165       -2.0305977434
 H          3.0509676604       -0.7171982471        1.4977279641
 H          1.4442951311       -1.3812343043        3.2577668978
 H         -0.8003664770       -2.1979830063        2.6378548160
 C         -1.8583171196       -2.4823217873        0.1883347149
 H         -2.2636616013       -3.0644480682        1.0260611364
 C         -1.9711932439       -3.3079842756       -1.0756219410
 C         -1.5053814673       -4.7320330877       -1.0588134306
 C         -2.9698064997       -4.4231371140       -1.1317067975
 H         -3.4903664013       -4.6006242527       -2.0608491693
 H         -3.5741206629       -4.5974940141       -0.2534150935
 H         -1.0185391007       -5.1260916660       -1.9377034906
 H         -1.1146847991       -5.1163217857       -0.1288032302
 H         -1.8227985320       -2.7363197168       -1.9825298424
 O         -1.7554146322       -0.4084363199       -1.8962468848
