  62
        -98.93813397
 C          1.9818604974        1.3912030777        0.3037871261
 C          2.6258899442        0.7166410663       -0.7603053524
 C          3.7767858254       -0.1266924799       -0.3921541537
 C          4.1507877999       -0.2119199179        0.8959193380
 C          5.3102190870       -0.9758727170        1.4845421493
 C          5.5405110930       -2.4080280526        0.9803647798
 C          4.2700187665       -3.1671984995        0.5700058827
 H          4.2641119494       -4.1412702093        1.0630129429
 H          3.3833398507       -2.6275330627        0.9077548017
 C          4.1775412618       -3.4058245070       -0.9393182174
 H          5.1599217402       -3.7130219850       -1.3046788388
 H          3.4877468370       -4.2334602859       -1.1221803655
 C          3.6858339276       -2.2177697522       -1.7659014487
 H          2.6208917129       -2.0507126694       -1.5798429000
 H          3.7859653071       -2.4795934248       -2.8220051233
 C          4.4170460556       -0.8884987878       -1.5162725369
 H          5.4784356400       -1.0488339301       -1.3430436049
 H          4.2973367115       -0.2684582935       -2.4087598580
 H          6.2288883376       -2.3909309304        0.1365728562
 H          6.0427458778       -2.9488113140        1.7842054845
 H          6.2200347909       -0.3902081646        1.3250901207
 H          5.1225776820       -0.9922785435        2.5608226615
 O          3.4950787331        0.4520127346        1.8903132952
 C          2.3954199576        1.2511785085        1.6264458933
 O          1.8771842521        1.7663019010        2.6388338699
 H         -0.0725267618       -0.1331005502        0.7681453020
 C         -0.6223583147        0.2166254636       -0.0976850008
 C         -0.3119210631        1.4594206868       -0.6371061154
 C         -1.0387890889        1.9032148377       -1.7335682590
 C         -2.0219911116        1.1048186452       -2.2935723587
 C         -2.3082302014       -0.1423283271       -1.7711412989
 C         -1.6022876576       -0.5865115386       -0.6595493820
 N         -1.8970788484       -1.8445524869       -0.1075857339
 S         -3.5071463002       -2.2596564150        0.0825716445
 O         -3.5302646940       -3.1843073850        1.1943884015
 O         -4.0286404371       -2.7630889185       -1.1636433531
 C         -4.3382428042       -0.7404094130        0.5125824720
 C         -5.3413853540       -0.2498432086       -0.2981119347
 C         -5.9528742235        0.9464522026        0.0414911220
 C         -5.5492190729        1.6299579722        1.1776917744
 C         -4.5418251372        1.1223771429        1.9841843807
 C         -3.9289966063       -0.0743741709        1.6509224941
 H         -3.1457370859       -0.4963801804        2.2606388826
 H         -4.2278943394        1.6547422091        2.8678295523
 H         -6.0215631002        2.5637082136        1.4388417649
 H         -6.7378627701        1.3425273940       -0.5822037892
 H         -5.6212478963       -0.8121466879       -1.1739921840
 H         -1.3588684884       -2.0706656317        0.7153355667
 H         -3.0552571552       -0.7839893111       -2.2093783330
 H         -2.5695713166        1.4572654559       -3.1540578814
 H         -0.8284337248        2.8705713037       -2.1584799025
 C          0.7774768854        2.2708183359        0.0226211737
 H          0.4079001388        2.6023871621        1.0042327131
 C          1.1948505780        3.4876577410       -0.7767643316
 C          0.4554835998        4.7821107070       -0.6259448452
 C          1.8345771155        4.6363425379       -0.0584387538
 H          2.6505991279        5.1552419384       -0.5386091448
 H          1.9438212354        4.5508870250        1.0132467687
 H          0.3262872678        5.4068726305       -1.4968071660
 H         -0.3744269107        4.8072333914        0.0637635773
 H          1.5860747864        3.2283045705       -1.7536603611
 O          2.2650831593        0.8151437247       -1.9610231729
