  62
        -98.93813224
 C         -1.9812497377       -1.3908773819        0.3034933696
 C         -2.6273158704       -0.7162150258       -0.7593047017
 C         -3.7775423794        0.1271338557       -0.3889296599
 C         -4.1488113369        0.2126448847        0.8999217338
 C         -5.3069133513        0.9767293171        1.4910431835
 C         -5.5390334505        2.4085106922        0.9866679175
 C         -4.2698545200        3.1679834031        0.5727935297
 H         -4.2629574202        4.1421967184        1.0654692739
 H         -3.3821304853        2.6286880133        0.9083907825
 C         -4.1813523787        3.4060501375       -0.9368494251
 H         -5.1649180002        3.7120863760       -1.2999867600
 H         -3.4928104322        4.2342513755       -1.1219107282
 C         -3.6906028676        2.2178703085       -1.7637936216
 H         -3.7930607073        2.4790270986       -2.8198272236
 H         -2.6251960220        2.0515440120       -1.5797925366
 C         -4.4205335469        0.8883100878       -1.5119373264
 H         -5.4816134622        1.0482254151       -1.3364138375
 H         -4.3025531638        0.2679392695       -2.4044367044
 H         -6.0395760186        2.9495123630        1.7914271545
 H         -6.2294515799        2.3906175728        0.1445692652
 H         -6.2169758460        0.3906921250        1.3343433744
 H         -5.1164783968        0.9938366101        2.5668206054
 O         -3.4910650202       -0.4511888094        1.8930219471
 C         -2.3922128247       -1.2507834604        1.6269648194
 O         -1.8722681663       -1.7661452196        2.6383334352
 H          0.0732508663        0.1341824696        0.7617168875
 C          0.6229755790       -0.2174078546       -0.1034204547
 C          0.3116698871       -1.4608605605       -0.6408342951
 C          1.0383145591       -1.9069506151       -1.7365314446
 C          2.0225450639       -1.1104506337       -2.2973951643
 C          2.3097405056        0.1372672383       -1.7768989800
 C          1.6036481264        0.5840556517       -0.6664435527
 N          1.8986032344        1.8432317056       -0.1171782280
 S          3.5086433501        2.2587457719        0.0730936486
 O          3.5301248758        3.1908736693        1.1786181467
 O          4.0328148104        2.7536030512       -1.1754095627
 C          4.3379036709        0.7419289390        0.5148377557
 C          3.9328355080        0.0893233645        1.6624043861
 C          4.5442702400       -1.1053756396        2.0054701129
 C          5.5458297321       -1.6245486434        1.1990899040
 C          5.9451042213       -0.9546289351        0.0532859886
 C          5.3352497266        0.2397422908       -0.2958973682
 H          5.6123317046        0.7919196767       -1.1790544088
 H          6.7255875049       -1.3596848028       -0.5702984805
 H          6.0171551349       -2.5566067168        1.4680238271
 H          4.2338895594       -1.6270713805        2.8967000173
 H          3.1541992009        0.5203655423        2.2717069348
 H          1.3600297090        2.0715498771        0.7048918639
 H          3.0575426883        0.7774464912       -2.2159222001
 H          2.5701770548       -1.4648730867       -3.1570393443
 H          0.8270941454       -2.8746847826       -2.1601328295
 C         -0.7778357147       -2.2711244959        0.0201965928
 H         -0.4070857544       -2.6032431654        1.0011940338
 C         -1.1970598266       -3.4875065954       -0.7789801526
 C         -0.4568368078       -4.7818197215       -0.6310398836
 C         -1.8346142399       -4.6370409990       -0.0601024026
 H         -2.6515279835       -5.1558836229       -0.5388197278
 H         -1.9413200208       -4.5526203808        1.0119114495
 H         -0.3295010217       -5.4057893480       -1.5027544140
 H          0.3747713289       -4.8071306813        0.0566098687
 H         -1.5905969181       -3.2274605265       -1.7547670964
 O         -2.2689542797       -0.8148228366       -1.9607564529
