  62
        -98.93606713
 C         -2.4844771695        0.1355884071        0.5972470283
 C         -2.1852069330        0.6570794639       -0.6850477570
 C         -1.7699219502        2.0676702485       -0.7193719688
 C         -1.6918177535        2.7630410506        0.4287949271
 C         -1.2871789336        4.2050499112        0.5384922245
 C          0.2182938496        4.3627626775        0.7856514439
 C          1.0945942113        3.5654350309       -0.1801818213
 H          2.1345996851        3.8082868288        0.0518463460
 H          0.9684444624        2.4974139080        0.0129982958
 C          0.8238442064        3.8405431006       -1.6659418442
 H          0.2959241601        4.7885773875       -1.7803811276
 H          1.7821754927        3.9373311296       -2.1802624258
 C          0.0463431465        2.7302804554       -2.3765856709
 H          0.4895237740        1.7633293057       -2.1257011949
 H          0.1480313301        2.8765060446       -3.4555409841
 C         -1.4538766347        2.6617613784       -2.0627443924
 H         -1.9000585096        3.6541697141       -2.1623486053
 H         -1.9194115308        1.9985648932       -2.7976838827
 H          0.4670989215        5.4238397336        0.7146047216
 H          0.4405985022        4.0272574006        1.8016390418
 H         -1.5705286125        4.7218271841       -0.3766946692
 H         -1.8301507475        4.6460938507        1.3768245739
 O         -1.9707786499        2.2213248667        1.6443177106
 C         -2.3546314479        0.8960761371        1.7571317242
 O         -2.5649465907        0.5191011694        2.9306966029
 H         -0.3790138635       -1.2613389001        1.1814853780
 C         -0.5989841351       -1.9766095506        0.4000782044
 C         -1.9237113829       -2.1812146715        0.0178710648
 C         -2.1653827910       -3.1162446489       -0.9796059916
 C         -1.1160590942       -3.7920310105       -1.5826709817
 C          0.1957811341       -3.5430367915       -1.2315900680
 C          0.4533086700       -2.6165290777       -0.2276728960
 N          1.7690759236       -2.3127875809        0.1722261476
 S          2.0775901356       -0.6798128161        0.4960522496
 O          1.7683089589       -0.4160993459        1.8807033819
 O          1.4209236729        0.1516999367       -0.4836646184
 C          3.8456637830       -0.6251074802        0.2686113456
 C          4.3713246709       -0.0358041511       -0.8649967448
 C          5.7469133400       -0.0241727740       -1.0376512240
 C          6.5676076488       -0.6022651763       -0.0812028303
 C          6.0248830804       -1.1901763700        1.0521578425
 C          4.6510630194       -1.2029215298        1.2322601473
 H          4.1838047383       -1.6374399579        2.1006106329
 H          6.6660348720       -1.6368119225        1.7948177419
 H          7.6372840383       -0.5927669782       -0.2184146548
 H          6.1710289076        0.4351794683       -1.9158667357
 H          3.6929734602        0.4046986848       -1.5780715211
 H          2.4611560854       -2.6946046328       -0.4591772270
 H          1.0096653919       -4.0496025055       -1.7276913775
 H         -1.3302616180       -4.5096228147       -2.3604424722
 H         -3.1620718752       -3.3170941190       -1.3269278438
 C         -2.9167294990       -1.3187767780        0.7617045127
 H         -2.7758135374       -1.5389702267        1.8343822515
 C         -4.4159595848       -1.4023218747        0.5176507356
 C         -5.0696836032       -1.5608963229       -0.8188053747
 C         -5.1866691143       -2.6503582826        0.2071642934
 H         -6.1414069073       -2.7775130379        0.6961815471
 H         -4.6479016963       -3.5730071099        0.0698056350
 H         -4.4314208277       -1.6893231295       -1.6775147712
 H         -5.9427476778       -0.9578429326       -1.0232256981
 H         -4.9086150610       -0.7103055803        1.1987629601
 O         -2.2773988445       -0.0084824349       -1.7477731475
