  62
        -98.93923697
 C          2.6334225143        1.2748305550        0.3691192011
 C          2.9468826101        0.1558040600        1.1829302207
 C          4.0772527798       -0.6699462660        0.7486219663
 C          4.7539660708       -0.3361319420       -0.3652572005
 C          5.9517499932       -1.0548625710       -0.9244943006
 C          5.6026264036       -2.2667168309       -1.7990158211
 C          5.0816348370       -3.4875796092       -1.0398486337
 H          5.0853861395       -4.3260426626       -1.7390635281
 H          5.7714654885       -3.7341841576       -0.2321632258
 C          3.6633178876       -3.3237828018       -0.4754203497
 H          3.0745690628       -4.2160452265       -0.7007073364
 H          3.1674549592       -2.4840170524       -0.9683458669
 C          3.6022190032       -3.1129529797        1.0375853157
 H          2.5554151530       -2.9710339631        1.3201955042
 H          3.9696819418       -4.0064883508        1.5474083511
 C          4.3990136751       -1.9016147231        1.5396051225
 H          4.1174806262       -1.7128328624        2.5785531143
 H          5.4676596278       -2.1119340808        1.4989543779
 H          4.8649908141       -1.9595231563       -2.5438830856
 H          6.5115941480       -2.5571832856       -2.3307356545
 H          6.6031075489       -1.3692734441       -0.1085268816
 H          6.4889691371       -0.3300320920       -1.5398453896
 O          4.4244313715        0.7429193872       -1.1199455632
 C          3.3445690820        1.5585493954       -0.7977536502
 O          3.1542634809        2.4765284539       -1.6152575007
 O          2.3142450986       -0.1289065904        2.2363123147
 C          1.4596704361        2.1287266306        0.8173742677
 C          0.1932531208        1.5948592281        0.1985314260
 C          0.0309120809        1.5476828037       -1.1834980399
 C         -1.1248259686        1.0244834019       -1.7325150958
 C         -2.1344395686        0.5312758691       -0.9228043076
 C         -1.9707923766        0.5492450200        0.4551242493
 C         -0.8140576363        1.0890423561        1.0055197029
 H         -0.6841891576        1.0910998197        2.0793585963
 N         -2.9850439767        0.0504933083        1.2864233418
 S         -3.7580025166       -1.3811439913        0.8778500304
 O         -4.2790816380       -1.8915533809        2.1269099112
 O         -2.8911832508       -2.2642090805        0.1328995560
 C         -5.1184287878       -0.8475501206       -0.1405047387
 C         -5.3260143546       -1.4311105310       -1.3748506531
 C         -6.3978362489       -1.0071041795       -2.1451905732
 C         -7.2392742998       -0.0133180798       -1.6694726790
 C         -7.0192177595        0.5602526596       -0.4259458670
 C         -5.9505944348        0.1400221830        0.3494500646
 H         -5.7476429538        0.5581751179        1.3211306467
 H         -7.6757074584        1.3329071257       -0.0594435075
 H         -8.0713719396        0.3160989303       -2.2714529600
 H         -6.5708608440       -1.4527147774       -3.1116340275
 H         -4.6426560326       -2.1966355566       -1.7070976082
 H         -2.7573062241        0.0723833187        2.2698768187
 H         -3.0322405840        0.1160876668       -1.3502951311
 H         -1.2422609478        0.9977256455       -2.8053560872
 H          0.8246092990        1.9184799745       -1.8148307733
 H          1.3936149645        1.9541855076        1.9030173746
 C          1.6730608548        3.6211977135        0.6068047739
 C          0.7815415684        4.4788920790       -0.2364322473
 C          0.7372480556        4.5991189731        1.2550220059
 H          1.1487881587        5.4813733841        1.7212780851
 H         -0.1258802740        4.1930066870        1.7613235654
 H          1.2468821015        5.2667764802       -0.8088037168
 H         -0.0567741501        4.0170254704       -0.7331864898
 H          2.7248739923        3.8859760145        0.6074575244
