  62
        -98.94697543
 C         -1.0609383702       -1.7124775203        0.4185156505
 C         -1.8167351398       -1.2523018212       -0.6902342701
 C         -2.8483196198       -0.2441068309       -0.3906465812
 C         -3.0236394502        0.1737280301        0.8750213384
 C         -4.0184313903        1.2075094705        1.3154903873
 C         -3.4129033702        2.6171082405        1.3164216864
 C         -2.7059660298        2.9937944194        0.0142325964
 H         -2.3806099398        4.0327243495        0.1080460457
 H         -1.8011003098        2.3939478693       -0.1062235629
 C         -3.5661023294        2.8414434885       -1.2476174138
 H         -3.4138218491        3.7193341480       -1.8790803244
 H         -4.6237571095        2.8110017388       -0.9804944341
 C         -3.2144060591        1.6188977378       -2.0982359427
 H         -3.6802468688        1.7404617471       -3.0804224230
 H         -2.1318021091        1.5885501777       -2.2492246224
 C         -3.6701173594        0.2634661683       -1.5412676719
 H         -4.7268709595        0.3146800086       -1.2673713122
 H         -3.5574230792       -0.4776155823       -2.3384102212
 H         -2.6884624705        2.6854894511        2.1313387766
 H         -4.2137761403        3.3326875307        1.5132694156
 H         -4.8826259801        1.1737588600        0.6547442170
 H         -4.3384045307        0.9607687013        2.3296734474
 O         -2.2847027906       -0.2927392891        1.9139682090
 C         -1.2882797706       -1.2345210693        1.7105868001
 O         -0.6857715709       -1.5674070785        2.7514681106
 H          0.4822127004       -0.3781551816       -1.0617368500
 C          1.3884231403       -0.9308923515       -0.8779866292
 C          1.3445389500       -2.1551573210       -0.2328773283
 C          2.5367385699       -2.8530749909       -0.0571320774
 C          3.7327753501       -2.3333595913       -0.5144184574
 C          3.7739526204       -1.0948311418       -1.1316981583
 C          2.5914154305       -0.3899308519       -1.3121633893
 N          2.5864647308        0.8773303077       -1.9181951902
 S          1.6584094506        2.0914428782       -1.2345622815
 O          0.2630842707        1.8812400281       -1.5151484918
 O          2.2334477208        3.3144053278       -1.7522638722
 C          1.9829731500        1.9567633896        0.5128316887
 C          1.0758419897        1.3230265303        1.3356577389
 C          1.3911225092        1.1370816713        2.6722014192
 C          2.6030844691        1.5973296016        3.1624421092
 C          3.4995221394        2.2487481209        2.3278116590
 C          3.1934100599        2.4232696299        0.9884520188
 H          3.8612696101        2.9255784093        0.3075643886
 H          4.4373596793        2.6115579112        2.7163748790
 H          2.8467773887        1.4465930724        4.2022213694
 H          0.6936865790        0.6116302418        3.3065899793
 H          0.1385831598        0.9773478500        0.9285487789
 H          3.5003163409        1.2224530674       -2.1742153202
 H          4.7092201405       -0.6785431621       -1.4731233983
 H          4.6475127801       -2.8885286012       -0.3748004666
 H          2.5202572697       -3.8081704805        0.4439527534
 C          0.0478782998       -2.7385590605        0.2859864617
 H          0.2405764995       -3.0984711697        1.3073198321
 C         -0.3656726999       -3.9261721611       -0.5666578475
 C          0.0699503899       -5.3115739109       -0.2001422763
 C         -1.3613033302       -4.9049296507       -0.0228568471
 H         -2.1072993000       -5.3056582311       -0.6922983370
 H         -1.7228795605       -4.7373732199        0.9817613627
 H          0.3145632201       -5.9993059915       -0.9949965057
 H          0.6633134096       -5.4384612302        0.6926205940
 H         -0.4413910096       -3.6816113419       -1.6188663977
 O         -1.6582350694       -1.6560198521       -1.8719672297
