  62
        -98.94474366
 C         -1.6154879175       -1.4550709557       -0.2442111379
 C         -2.7501370573       -0.9048297009        0.3899914895
 C         -3.2495277166        0.3734199294       -0.1433384589
 C         -2.6130224593        0.9509593716       -1.1797772312
 C         -2.8944552709        2.2354336757       -1.9312759428
 C         -3.8468509123        3.2822820016       -1.3604383906
 C         -3.3465886312        3.9750068667       -0.0931977215
 H         -4.1424189725        4.6253249302        0.2776937828
 H         -2.4934687714        4.6062982390       -0.3549207452
 C         -2.8964295388        3.0497986115        1.0352335774
 H         -2.5694197630        3.6774068190        1.8697988599
 H         -2.0217828507        2.4754496234        0.7186330438
 C         -3.9675357099        2.0969549720        1.5638826579
 H         -4.8498450367        2.6668899427        1.8631903885
 H         -3.5619460005        1.6135343609        2.4571837299
 C         -4.4051522179        0.9852831813        0.5946352179
 H         -5.1620973877        1.3407799779       -0.1003168021
 H         -4.8525683206        0.1804850609        1.1856956663
 H         -4.8295226844        2.8500621115       -1.1958748304
 H         -3.9627223452        4.0500782017       -2.1304484070
 H         -3.2624532893        1.9320664271       -2.9179408998
 H         -1.9146189535        2.6968342075       -2.0924701795
 O         -1.5424924893        0.3613093743       -1.7847468150
 C         -0.9918047852       -0.8139100676       -1.3118605519
 O          0.0275984144       -1.1886673641       -1.9247866585
 O         -3.3227048053       -1.4560102482        1.3708752737
 C         -0.9811846803       -2.7136515881        0.3177931026
 C          0.4432812658       -2.4192933720        0.7224831195
 C          1.4946344598       -3.3070156025        0.5295290199
 C          2.7852806895       -2.9575318165        0.8895223162
 C          3.0605074158       -1.7100691139        1.4195068148
 C          2.0134099085       -0.8201003686        1.6257848914
 C          0.7177123527       -1.1918887513        1.3121899060
 H         -0.0814644368       -0.4863299531        1.4871373488
 N          2.2285800577        0.4859779668        2.1190041558
 S          1.9246889424        1.7218221315        1.0215348777
 O          2.2863731063        2.9401196781        1.7152501781
 O          0.5698110295        1.6384574273        0.5443278249
 C          3.1013834129        1.4156247483       -0.2841484050
 C          4.3231643838        2.0597162049       -0.2246281512
 C          5.2858265235        1.7656939568       -1.1758368230
 C          5.0159398423        0.8258547677       -2.1597069619
 C          3.7869152111        0.1866403762       -2.2027002085
 C          2.8152056966        0.4786478497       -1.2565112242
 H          1.8504733466       -0.0053013052       -1.2787950824
 H          3.5682968554       -0.5445239351       -2.9643992059
 H          5.7662446018        0.5904899315       -2.8980192712
 H          6.2409475759        2.2647919630       -1.1451074954
 H          4.4850850265        2.7836683666        0.5578670220
 H          3.1508978631        0.6227824095        2.5112648749
 H          4.0714781535       -1.4236590328        1.6678269079
 H          3.5910323767       -3.6580914186        0.7326025351
 H          1.3040897177       -4.2717777486        0.0883241309
 H         -1.5590589914       -2.9577159729        1.2221023663
 C         -1.0993878538       -3.8614411093       -0.6635114838
 C         -1.2222166263       -5.2721446066       -0.1717637420
 C         -2.4074301541       -4.5835672832       -0.7765551911
 H         -2.7434247199       -4.8920274235       -1.7550871358
 H         -3.2054152541       -4.2641233570       -0.1221786195
 H         -0.7461814493       -6.0587497487       -0.7375821892
 H         -1.2222110048       -5.4319243531        0.8958942037
 H         -0.5461541224       -3.6815325159       -1.5785020460
