  62
        -98.94408706
 C         -1.4669790414       -1.1768930042       -0.0071670861
 C         -2.5258974108       -0.7578606608        0.8270351559
 C         -3.0887451662        0.5755830917        0.5582553961
 C         -2.5729001501        1.3223113794       -0.4364491358
 C         -2.8937458544        2.7319103910       -0.8880145778
 C         -4.1893240998        3.4170049351       -0.4601476847
 C         -5.4640180614        2.7841539414       -1.0166887412
 H         -6.3196500799        3.3032855924       -0.5793864579
 H         -5.4909563674        2.9478653051       -2.0967954211
 C         -5.6148857191        1.2848331850       -0.7722754023
 H         -6.5691242256        0.9703856647       -1.2033459667
 H         -4.8279194597        0.7457964137       -1.3035289947
 C         -5.6042673870        0.8574329193        0.6942736775
 H         -5.8926854600       -0.1963871013        0.7310141938
 H         -6.3511401785        1.4279927592        1.2494943151
 C         -4.2503708367        0.9895023594        1.4152006254
 H         -4.2556323599        0.3097945814        2.2726137111
 H         -4.1004099124        1.9955456891        1.8011149186
 H         -4.1364183796        4.4420088359       -0.8374630871
 H         -4.2396136210        3.4840459325        0.6227089364
 H         -2.0483338693        3.3430292275       -0.5504553715
 H         -2.8436582917        2.7124587240       -1.9814429257
 O         -1.5487407965        0.8739150550       -1.2177870094
 C         -0.9633499159       -0.3618019919       -1.0180331074
 O         -0.0275547474       -0.6217641461       -1.7998022238
 O         -2.9762011245       -1.4639099088        1.7716982509
 C         -0.8131768929       -2.5237227687        0.2353887412
 C          0.6694916368       -2.3534191369        0.4593097734
 C          1.6180836784       -3.2471872964       -0.0232533448
 C          2.9670529457       -3.0312081230        0.2004760441
 C          3.4004210672       -1.9113852007        0.8863896530
 C          2.4587777717       -1.0170116506        1.3807540647
 C          1.1085640959       -1.2573003225        1.1909971644
 H          0.3932195678       -0.5497304918        1.5848276086
 N          2.8410733513        0.1610461224        2.0604778569
 S          2.5021359477        1.5993232488        1.2636901378
 O          3.0721595516        2.6354656788        2.0992916711
 O          1.0896030969        1.6976470969        1.0025617082
 C          3.4422998015        1.4771261398       -0.2477522371
 C          2.9363785929        0.7554687323       -1.3101397935
 C          3.7269091223        0.5948290015       -2.4388393804
 C          4.9962956174        1.1492938803       -2.4855130166
 C          5.4878642625        1.8725752516       -1.4088208822
 C          4.7074931746        2.0335385049       -0.2760631860
 H          5.0445892468        2.5887352351        0.5845580056
 H          6.4741362056        2.3063168600       -1.4473553877
 H          5.6042778327        1.0175143949       -3.3666676927
 H          3.3364746066        0.0315518401       -3.2712242158
 H          1.9427841829        0.3363863795       -1.2595960192
 H          3.8140334398        0.1675755414        2.3375284962
 H          4.4534092508       -1.7266954845        1.0372989924
 H          3.6908914608       -3.7344169305       -0.1818352070
 H          1.3000125257       -4.1126770780       -0.5812672172
 H         -1.2632509242       -2.9068319665        1.1639957468
 C         -1.1406293227       -3.4790397039       -0.8948669487
 C         -1.2848479480       -4.9480198856       -0.6334683073
 C         -2.4959770731       -4.1171439995       -0.9291483383
 H         -2.9868537981       -4.2359700227       -1.8834126289
 H         -3.1704554579       -3.8845638971       -0.1179248367
 H         -0.9462800307       -5.6417092558       -1.3882893720
 H         -1.1446188942       -5.2923281091        0.3800129558
 H         -0.7118801399       -3.1637465357       -1.8397639710
