  62
        -98.93353501
 C          2.4507623035        1.0253074405       -0.0435318689
 C          2.6259979800       -0.3573005242        0.1977540766
 C          3.9904579967       -0.7875839358        0.5520210873
 C          4.9717883484        0.1271486252        0.6340743979
 C          6.4180977745       -0.0773923935        1.0107512984
 C          7.1371742064       -1.3002153276        0.4250389646
 C          6.6802077056       -1.7097308602       -0.9826686463
 H          6.0496642923       -0.9301847910       -1.4137400331
 H          7.5569635816       -1.8116899049       -1.6249010448
 C          5.9272559517       -3.0421747593       -1.0013567138
 H          5.9581376245       -3.4491936356       -2.0149243488
 H          6.4476033287       -3.7476934068       -0.3499812692
 C          4.4578003529       -2.9707513515       -0.5876032958
 H          3.8790689396       -2.4560271550       -1.3595509563
 H          4.0740497842       -3.9922068321       -0.5295237757
 C          4.1797648978       -2.2641920145        0.7492147974
 H          4.9583218662       -2.4773243103        1.4775412183
 H          3.2276627842       -2.6388721820        1.1350442090
 H          8.2015832396       -1.0602210246        0.4066379008
 H          7.0189076742       -2.1490842466        1.0968998385
 H          6.9258794377        0.8347956038        0.6884848714
 H          6.4830015409       -0.1130105206        2.1020998185
 O          4.7527366050        1.4534119495        0.4020084135
 C          3.5017159372        1.9343100487        0.0592906103
 O          3.4542289671        3.1686836007       -0.1188656705
 O          1.6899455188       -1.1958955752        0.1316040706
 C          1.0836985323        1.5596951686       -0.4282633751
 C          0.0641348186        1.1941838512        0.6230747843
 C          0.3404599438        1.4859553857        1.9568943558
 C         -0.5686005285        1.1782233969        2.9498650360
 C         -1.7787092590        0.5850143603        2.6345189511
 C         -2.0639278661        0.2891314838        1.3073818424
 C         -1.1462496315        0.5970040777        0.3118961220
 H         -1.3963012497        0.3575940782       -0.7076749381
 N         -3.2699821764       -0.3397740933        0.9589704813
 S         -3.9959472915        0.0471170290       -0.5140752817
 O         -3.3744595135       -0.7181772098       -1.5650104244
 O         -4.0175567089        1.4815590281       -0.6944534996
 C         -5.6461167010       -0.5647529868       -0.2238226517
 C         -5.8855009959       -1.9180417060       -0.3720150615
 C         -7.1581371374       -2.4046814262       -0.1193735037
 C         -8.1645940804       -1.5354592714        0.2751166319
 C         -7.9099642648       -0.1797579628        0.4174482691
 C         -6.6388578761        0.3134837294        0.1677409211
 H         -6.3965928271        1.3602907923        0.2569253299
 H         -8.6954069925        0.4936284851        0.7205839540
 H         -9.1544086479       -1.9169652257        0.4699432271
 H         -7.3605118371       -3.4576161096       -0.2317983292
 H         -5.0747221983       -2.5531174156       -0.6891773096
 H         -3.9408189178       -0.3522277928        1.7148805685
 H         -2.4902156626        0.3451326040        3.4100552238
 H         -0.3375129336        1.4083734046        3.9792460308
 H          1.2840842116        1.9555302784        2.2021177912
 H          1.1770465149        2.6561471450       -0.4430202577
 C          0.7108779755        1.0869918925       -1.8178405270
 C         -0.2392573072        1.8869948597       -2.6556075463
 C          1.2163538743        1.8413256944       -3.0090306832
 H          1.5180161012        1.2838785715       -3.8830956397
 H          1.8167280032        2.7196438844       -2.8205233785
 H         -0.9439470320        1.3584181502       -3.2806384198
 H         -0.6342035173        2.7978926476       -2.2308067358
 H          0.6656589537        0.0057835450       -1.8923460287
