  62
        -98.93821771
 C          1.7975471704        1.6881466784       -0.1328682794
 C          1.5935534802        0.3760422987       -0.6235395601
 C          2.7655583900       -0.5142036716       -0.5790236403
 C          3.9356582900       -0.0384817721       -0.1159250098
 C          5.1951314797       -0.8390709225        0.0584299301
 C          5.0958484292       -1.7061837932        1.3298178396
 C          5.0780668889       -3.2120982130        1.0661750888
 H          6.0904792289       -3.5413306531        0.8226354889
 H          4.7880215185       -3.7035562535        1.9974258185
 C          4.1495976591       -3.6827228522       -0.0574284317
 H          4.0471410388       -4.7647723722        0.0494611677
 H          4.6265423094       -3.5099039118       -1.0232706415
 C          2.7497505692       -3.0547128618       -0.0806810517
 H          2.4723522090       -2.6990153923        0.9119058584
 H          2.0365919391       -3.8352896415       -0.3527870223
 C          2.5750555598       -1.9123035013       -1.0983750411
 H          3.2383392999       -2.0794771709       -1.9514743410
 H          1.5461911399       -1.9271556708       -1.4695180514
 H          5.9372954691       -1.4845714637        1.9881634200
 H          4.1913963591       -1.4189108633        1.8703643096
 H          5.3606629498       -1.4614188421       -0.8181124302
 H          6.0203248599       -0.1318453428        0.1451067007
 O          4.0930107502        1.2354885876        0.3312701810
 C          3.0311669804        2.1244935779        0.3475567412
 O          3.3069934105        3.2517685175        0.8059954919
 H         -1.9493559893        2.0811494797       -0.8831904901
 C         -1.7409532797        1.8117280891        0.1401026098
 C         -0.4920209197        2.0639807585        0.6825250202
 C         -0.2559280702        1.6997450978        2.0058089501
 C         -1.2410676805        1.0920834276        2.7598466395
 C         -2.4841141404        0.8290088182        2.2098510591
 C         -2.7287759800        1.1872242890        0.8916906292
 N         -3.9886195999        0.9199622896        0.3199332287
 S         -4.5362219703       -0.6629522303        0.3203248877
 O         -5.6736669801       -0.6651538095       -0.5719386926
 O         -4.7930637008       -1.0720688710        1.6782438174
 C         -3.2137140604       -1.6352332302       -0.3744957925
 C         -3.1876980801       -1.8325273495       -1.7403382926
 C         -2.1463546801       -2.5591324295       -2.2925339427
 C         -1.1493970704       -3.0651527301       -1.4738669527
 C         -1.1849243107       -2.8501462509       -0.1057387426
 C         -2.2258821707       -2.1278907209        0.4533495275
 H         -2.2887934509       -1.9453927015        1.5136991376
 H         -0.4017595910       -3.2358951314        0.5270463674
 H         -0.3384403204       -3.6301020301       -1.9069255928
 H         -2.1113342199       -2.7240436889       -3.3576747028
 H         -3.9872505398       -1.4281288390       -2.3405586026
 H         -4.0919680596        1.3069355701       -0.6077459911
 H         -3.2598179307        0.3404643081        2.7770633386
 H         -1.0411723508        0.8165291970        3.7846379994
 H          0.7198514198        1.8930341573        2.4315925405
 C          0.6396693906        2.6711578287       -0.1089769991
 H          1.0014550407        3.5591484083        0.4281184114
 C          0.2631692111        3.0734313095       -1.5191995590
 C         -0.4491614985        4.3686986498       -1.7656361785
 C          0.9869805815        4.2145413997       -2.1653366982
 H          1.2262907318        4.1444819602       -3.2158810382
 H          1.7416435615        4.7191348692       -1.5797138977
 H         -0.6733621886        4.9863009394       -0.9090671582
 H         -1.1950364083        4.4098125104       -2.5452182987
 H          0.0160898610        2.2238515499       -2.1455143195
 O          0.4939937802       -0.0320163908       -1.0781648806
