  62
        -98.94633804
 C         -1.7867119875       -0.7496925017        0.2274067020
 C         -3.0837811320       -0.9957322324        0.7375705018
 C         -4.0017981218        0.1509769066        0.7359460650
 C         -3.5649336618        1.3426696679        0.2886391472
 C         -4.4086618736        2.5791150056        0.1818702756
 C         -5.0701604095        2.6811835084       -1.1996708783
 C         -5.7730436882        1.3983761966       -1.6439184359
 H         -6.2274866561        1.5967513136       -2.6170961145
 H         -5.0260099129        0.6151796280       -1.7928527844
 C         -6.8481324947        0.8941234376       -0.6710364998
 H         -7.7329715452        0.6093592447       -1.2442238361
 H         -7.1444681895        1.6985278655        0.0031610307
 C         -6.4372591799       -0.3295675693        0.1500859775
 H         -6.0524234700       -1.1054760693       -0.5166933909
 H         -7.3318449911       -0.7296165997        0.6347896297
 C         -5.3960912262       -0.0774951448        1.2480052862
 H         -5.7185317058        0.7550283530        1.8765641218
 H         -5.3437562238       -0.9768933762        1.8686365129
 H         -5.7883036875        3.5029004092       -1.1789338210
 H         -4.2996710349        2.9213253053       -1.9359917960
 H         -5.1692490178        2.5626148582        0.9599530294
 H         -3.7662616611        3.4482987847        0.3320080017
 O         -2.3027332530        1.5469563464       -0.1670413855
 C         -1.3867193113        0.5070092295       -0.2244293874
 O         -0.2743961715        0.8282502011       -0.6819860267
 H          1.8643735552       -1.9099796300       -0.6436339664
 C          1.7234319941       -1.6102423577        0.3807881513
 C          0.4556872250       -1.5436145717        0.9359016186
 C          0.3304119212       -1.1481129221        2.2662909403
 C          1.4424939450       -0.8164379405        3.0143603975
 C          2.7057906229       -0.8642018899        2.4494951392
 C          2.8431001246       -1.2630064542        1.1265614862
 N          4.1158285270       -1.3484799042        0.5297140219
 S          4.4377524884       -0.4768440250       -0.8637333842
 O          3.5479223988       -0.8871808302       -1.9175918029
 O          5.8500482531       -0.6825776942       -1.1032474552
 C          4.1587735882        1.2245476408       -0.4057006602
 C          2.8687047225        1.7112674436       -0.3428276039
 C          2.6728818707        3.0177856535        0.0794396484
 C          3.7562075759        3.8081151476        0.4294144401
 C          5.0457293553        3.3017306990        0.3608219095
 C          5.2503387960        1.9968437978       -0.0555312632
 H          6.2343016661        1.5622720441       -0.1287350001
 H          5.8880195198        3.9178965208        0.6315238810
 H          3.5936153106        4.8233209519        0.7559802325
 H          1.6651374312        3.3990396522        0.1295742509
 H          2.0314294093        1.0896310489       -0.6185454726
 H          4.8773498585       -1.2186791678        1.1816020755
 H          3.5771045145       -0.5998036960        3.0294385518
 H          1.3270865835       -0.5122672391        4.0436844800
 H         -0.6576182498       -1.1039752231        2.7043500104
 C         -0.7918932650       -1.8943993801        0.1647714946
 H         -1.2837607408       -2.7370962390        0.6734016664
 C         -0.5296255682       -2.2850720598       -1.2743801537
 C         -0.1173984847       -3.6858944845       -1.6105713910
 C         -1.4910548135       -3.2031477079       -1.9650767419
 H         -1.7236389617       -3.0208499708       -3.0036758274
 H         -2.3273249338       -3.5699835853       -1.3876863226
 H         -0.0211023301       -4.3874551952       -0.7957085351
 H          0.5986683318       -3.8330320845       -2.4052580683
 H         -0.1046378027       -1.4768467986       -1.8604110226
 O         -3.4530351287       -2.1178717086        1.1770714821
