  62
        -98.94449178
 C         -2.5983386451       -1.2827374075        0.1072116013
 C         -2.6506889904       -0.3159316570       -0.9259114984
 C         -3.5698136556        0.8117012660       -0.7066889112
 C         -4.3005382894        0.8668074872        0.4208032189
 C         -5.2360214024        1.9810342598        0.7881881002
 C         -4.5201209601        3.0625451756        1.6090224618
 C         -3.1971827364        3.5282736996        1.0002308954
 H         -2.8011328574        4.3154201606        1.6456649335
 H         -2.4786299401        2.7050114853        1.0264467561
 C         -3.3091483278        4.0561174222       -0.4368814201
 H         -4.3465895759        4.3084862728       -0.6596413884
 H         -2.7259652832        4.9759445386       -0.5171308248
 C         -2.7789222370        3.1006018549       -1.5077415920
 H         -1.7714690038        2.7711547329       -1.2366940276
 H         -2.6976772905        3.6549997595       -2.4468019127
 C         -3.6402881593        1.8606825268       -1.7807364281
 H         -3.2604873636        1.3863378972       -2.6903491507
 H         -4.6741334276        2.1636908886       -1.9576379799
 H         -4.3150166280        2.6633305038        2.6049131882
 H         -5.1923123871        3.9157422841        1.7161505601
 H         -5.6506501067        2.4143487493       -0.1198197274
 H         -6.0484119809        1.5635505346        1.3853323300
 O         -4.2336732790       -0.0834724791        1.3865101540
 C         -3.3789208115       -1.1635888003        1.2625103954
 O         -3.4088324380       -1.9494150658        2.2302629886
 O         -1.9797698990       -0.3695569718       -1.9923438568
 C         -1.6903563320       -2.5042926424        0.0591843171
 C         -0.2711389522       -2.1012947904        0.3816716669
 C          0.2894291202       -2.4094853285        1.6161879726
 C          1.5749716122       -2.0028755385        1.9274870450
 C          2.3246881040       -1.2768083307        1.0190162544
 C          1.7677665752       -0.9516678923       -0.2105544388
 C          0.4850942840       -1.3744761890       -0.5265933361
 H          0.0511741900       -1.0982970328       -1.4757934803
 N          2.5128627552       -0.1967525594       -1.1364473733
 S          3.1486905937        1.2607385800       -0.5919595834
 O          2.3649280847        1.8104978519        0.4909971276
 O          3.2858683046        2.0858990569       -1.7723172379
 C          4.7714686251        0.8128897396       -0.0104519095
 C          5.1497602954        1.1107726849        1.2838502880
 C          6.4197806563        0.7531415982        1.7097541759
 C          7.2839463670        0.1081117440        0.8383574753
 C          6.8894965464       -0.1815279308       -0.4595415247
 C          5.6221072829        0.1744565552       -0.8918000148
 H          5.2771766768       -0.0282504944       -1.8918908569
 H          7.5642804394       -0.6832151249       -1.1342861424
 H          8.2707046677       -0.1706139411        1.1729064416
 H          6.7281430297        0.9776884518        2.7182190770
 H          4.4414121050        1.6077332473        1.9276413024
 H          2.0232783265       -0.0558807586       -2.0094686951
 H          3.3236776861       -0.9505217220        1.2585708389
 H          1.9970715477       -2.2509652890        2.8894570903
 H         -0.3000137322       -2.9552349916        2.3390107181
 H         -2.0420114873       -3.1625185461        0.8644878950
 C         -1.7852551118       -3.2603210756       -1.2513182996
 C         -1.3319628412       -4.6873026180       -1.2984966100
 C         -2.7919080635       -4.3608913786       -1.3880026775
 H         -3.2934926159       -4.4842513491       -2.3361316076
 H         -3.4170440986       -4.5752327335       -0.5332317341
 H         -0.8281510288       -5.0383886298       -2.1858473269
 H         -0.9668646976       -5.1252565897       -0.3818663400
 H         -1.6071219598       -2.6446666495       -2.1226634476
