  62
        -98.93377077
 C          2.4521035437        1.1128722546        0.5009377185
 C          2.3855657331       -0.1749855175       -0.0820780128
 C          3.5552360986       -1.0528615854        0.1287700250
 C          4.5984050792       -0.6134195872        0.8551813353
 C          5.8927480005       -1.2899527701        1.2561206810
 C          6.3549951919       -2.5686273815        0.5620424077
 C          6.7365585217       -2.3980156817       -0.9079088411
 H          7.6506039511       -1.8012827238       -0.9631955256
 H          6.9590046197       -3.3851614555       -1.3189974178
 C          5.6892687229       -1.7189011061       -1.7870242465
 H          5.5387765019       -0.6909032810       -1.4507022479
 H          6.0885443131       -1.6682550424       -2.8037272194
 C          4.3353354405       -2.4230986293       -1.8539014442
 H          3.7482361373       -1.9327673739       -2.6352731498
 H          4.4772276912       -3.4647709533       -2.1480825210
 C          3.5042701625       -2.3866412858       -0.5592192365
 H          2.4563513697       -2.5536099810       -0.8251354529
 H          3.7982624104       -3.1806504976        0.1228907783
 H          5.6081670901       -3.3492321507        0.6727972468
 H          7.2470797510       -2.9062900155        1.0966670351
 H          6.6703021873       -0.5262608893        1.1528933207
 H          5.8019415693       -1.4924618608        2.3290831648
 O          4.5990073291        0.6253975800        1.4308848909
 C          3.5440793820        1.5053617382        1.2774684641
 O          3.6932904428        2.5893254510        1.8763540763
 H         -0.7457451421        1.5349565443       -1.3582685852
 C         -0.9519746267        1.2394520962       -0.3411770545
 C         -0.0021523536        1.4536810660        0.6441319228
 C         -0.2837078747        1.0357990620        1.9417507206
 C         -1.4814230773        0.4151470166        2.2402190495
 C         -2.4236916016        0.1942927502        1.2509404301
 C         -2.1528680341        0.6060129870       -0.0463231914
 N         -3.0925054428        0.3625579046       -1.0600482044
 S         -4.7048163075        0.7234556692       -0.7935506428
 O         -5.2714195787        0.9174470393       -2.1106749505
 O         -4.8563446898        1.8191403605        0.1360725843
 C         -5.3723707331       -0.7704280622       -0.0912037729
 C         -5.1888262476       -1.9530319810       -0.7804844697
 C         -5.7114615482       -3.1228442288       -0.2529092675
 C         -6.4070388487       -3.0904189726        0.9466504584
 C         -6.5855046671       -1.8945985782        1.6250141681
 C         -6.0644990645       -0.7208760218        1.1028341332
 H         -6.1737419185        0.2308050902        1.5982979911
 H         -7.1265678204       -1.8715782191        2.5573489990
 H         -6.8123589740       -4.0027578892        1.3549542417
 H         -5.5739683578       -4.0548442996       -0.7772182426
 H         -4.6437246865       -1.9366995869       -1.7095224196
 H         -2.7912654668        0.6464094071       -1.9803062041
 H         -3.3581880827       -0.2936142014        1.4751703355
 H         -1.6835775639        0.0958275511        3.2514816264
 H          0.4561029376        1.2002793291        2.7138854993
 C          1.3226002595        2.1206884157        0.3692454924
 H          1.5019044236        2.8511351592        1.1753236161
 C          1.3375999043        2.9072546839       -0.9333823922
 C          2.6350052680        3.2931784020       -1.5770997984
 C          1.7338190153        2.3003018937       -2.2443720611
 H          1.2020400789        2.6102181420       -3.1326796208
 H          2.0239726798        1.2617999071       -2.2502036842
 H          2.7232041853        4.2806383189       -2.0045739390
 H          3.5445070571        2.9337664202       -1.1178497054
 H          0.5477750819        3.6527324817       -0.9604390143
 O          1.4064093317       -0.5945525299       -0.7500699845
