  62
        -98.94468901
 C          2.5724064734        0.8767965416        0.2782636960
 C          2.5100779304       -0.0044115744       -0.8286144059
 C          2.8351750463       -1.4113004444       -0.5516722586
 C          3.1953132554       -1.7810704738        0.6895634675
 C          3.4973136728       -3.1867049621        1.1182917650
 C          2.2431367272       -3.8873635156        1.6582557884
 C          1.0192895501       -3.7692143318        0.7487675891
 H          0.2160180132       -4.3489692763        1.2094562416
 H          0.6786978373       -2.7308818131        0.7181896449
 C          1.2402243718       -4.2633134151       -0.6874320870
 H          0.3747047647       -4.8582350430       -0.9868512975
 H          2.1150644356       -4.9141501145       -0.7288181489
 C          1.3849018225       -3.1455382012       -1.7221843124
 H          0.5654729761       -2.4312939523       -1.5947549561
 H          1.2812148610       -3.5864956452       -2.7179052080
 C          2.7154510209       -2.3809875631       -1.6929948871
 H          3.5467369666       -3.0891794913       -1.6904958874
 H          2.7766759891       -1.7821392104       -2.6064738704
 H          2.4793538579       -4.9419456920        1.8129385578
 H          1.9909597866       -3.4488806534        2.6263990240
 H          3.8997425024       -3.7404210181        0.2724222572
 H          4.2490973116       -3.1496598943        1.9086904251
 O          3.2897156385       -0.9017767600        1.7185519069
 C          2.9493277536        0.4273783559        1.5485773246
 O          3.0359512090        1.1116627017        2.5878440476
 H          0.3608559355        1.4148227524       -1.5786128870
 C         -0.1215665175        1.8343294269       -0.7083042295
 C          0.6507111840        2.3952482050        0.2990629842
 C          0.0059456927        2.9058185677        1.4196950357
 C         -1.3724127956        2.8412414778        1.5321129646
 C         -2.1331426863        2.2404984060        0.5437292200
 C         -1.4952074071        1.7290357751       -0.5774060361
 N         -2.2529438833        1.0184537992       -1.5468452098
 S         -2.5141088373       -0.5737570797       -1.0409556264
 O         -1.4095285873       -1.0669682093       -0.2490628202
 O         -2.8350778074       -1.3235970007       -2.2361022544
 C         -3.9691282206       -0.4151546504       -0.0294355069
 C         -3.8832283231       -0.6083526683        1.3347439763
 C         -5.0247155072       -0.4514219163        2.1058622081
 C         -6.2235259373       -0.1045054164        1.5017023261
 C         -6.2928336872        0.0855975775        0.1292903817
 C         -5.1557310654       -0.0700885639       -0.6469064306
 H         -5.1620497300        0.0633826877       -1.7157918694
 H         -7.2270494450        0.3553429688       -0.3361922173
 H         -7.1091532707        0.0186467521        2.1048618062
 H         -4.9721829284       -0.5977360929        3.1728058257
 H         -2.9275961921       -0.8713665363        1.7600035391
 H         -1.7788523572        0.9819390438       -2.4405703040
 H         -3.2040674930        2.1583717390        0.6360087239
 H         -1.8574356427        3.2433228727        2.4083901411
 H          0.5977852079        3.3290073318        2.2184428749
 C          2.1571061777        2.3418878731        0.2126351362
 H          2.5661001536        2.8104478816        1.1174953865
 C          2.6921972431        3.0822608943       -0.9953924949
 C          2.7644662087        4.5781768355       -0.9515264553
 C          4.0222755062        3.7649401299       -0.9035602548
 H          4.6662560639        3.7537320584       -1.7699847591
 H          4.5531434487        3.6999040447        0.0351704289
 H          2.4440029564        5.0674952389       -0.0442380127
 H          2.5431328278        5.1303883711       -1.8518184086
 H          2.4405546898        2.6158053199       -1.9382784468
 O          2.2025411923        0.3387836701       -2.0034770081
