  62
        -98.93756905
 C         -2.2531945004       -0.7384398604       -0.1290111881
 C         -3.5800039604       -1.1972460711       -0.3342402068
 C         -4.6409426204       -0.4478194892        0.3508877810
 C         -4.3040684505        0.5709180133        1.1619778680
 C         -5.2813133206        1.4611412753        1.8723074453
 C         -5.6289301306        2.6900832628        1.0203200717
 C         -6.0126000805        2.3544019385       -0.4210191173
 H         -6.2651846506        3.2939689570       -0.9172802301
 H         -5.1398760005        1.9457010870       -0.9360492561
 C         -7.1861183305        1.3735920880       -0.5540573345
 H         -7.8686604605        1.7473290357       -1.3201316456
 H         -7.7418356705        1.3324389308        0.3833389456
 C         -6.7856794304       -0.0437991632       -0.9678041703
 H         -7.6937917404       -0.5875885040       -1.2409168087
 H         -6.1513224404       -0.0003929258       -1.8569833704
 C         -6.0611611804       -0.8710976900        0.1015959922
 H         -6.6360207004       -0.8576164073        1.0295871121
 H         -6.0071248503       -1.9034681310       -0.2559943747
 H         -6.4500691707        3.2235251642        1.5024592501
 H         -4.7600187906        3.3521413028        0.9975275998
 H         -4.8268115906        1.7941428681        2.8068306844
 H         -6.1830025506        0.8953203459        2.0982340870
 O         -3.0178424105        0.9364143840        1.3924416770
 C         -1.9584473005        0.3042579322        0.7504620089
 O         -0.8422129105        0.7590420932        1.0633938376
 O         -3.8622374503       -2.1902639433       -1.0562296438
 C         -1.1418451103       -1.4611947526       -0.8682892559
 C          0.0211363797       -1.7328298098        0.0517465050
 C         -0.1768596203       -2.5669295066        1.1490646874
 C          0.8521800996       -2.8251299539        2.0328980282
 C          2.1004822096       -2.2611616544        1.8385076166
 C          2.3131209896       -1.4377866976        0.7389411842
 C          1.2774278996       -1.1833739603       -0.1489734866
 H          1.4588180696       -0.5196357527       -0.9765004386
 N          3.5927376296       -0.9048601083        0.5002575326
 S          3.8058252995        0.5867392895       -0.2556437918
 O          3.1713027095        1.6472902917        0.4939628251
 O          3.4397548696        0.4676393254       -1.6445139114
 C          5.5799724195        0.7245011900       -0.1199483221
 C          6.1291366095        1.5196636229        0.8677503656
 C          7.5088140194        1.5973981033        0.9773606954
 C          8.3117759995        0.8801805508        0.1035554575
 C          7.7463020696        0.0870399679       -0.8839772202
 C          6.3678191896        0.0062353774       -0.9994873600
 H          5.8837222497       -0.5891441548       -1.7557269382
 H          8.3740032996       -0.4667371541       -1.5633190585
 H          9.3849969995        0.9422265611        0.1908739774
 H          7.9506099194        2.2160537356        1.7418407636
 H          5.4649036994        2.0655891548        1.5186078239
 H          4.1922580696       -0.9707411058        1.3120478528
 H          2.9031092196       -2.4553488723        2.5338531572
 H          0.6813620596       -3.4655270914        2.8853738701
 H         -1.1569171103       -2.9968716761        1.3076137786
 H         -1.5856828403       -2.4312809034       -1.1502260430
 C         -0.7266096603       -0.7809433264       -2.1644146979
 C         -1.6930999403        0.0451973712       -2.9573574404
 C         -0.5396003604        0.7022800933       -2.2634342323
 H          0.2831981096        1.0753565916       -2.8566831233
 H         -0.7312497905        1.2906223859       -1.3788608340
 H         -1.6715956203       -0.0319714919       -4.0339100001
 H         -2.6826258504        0.1888257924       -2.5482026308
 H         -0.0358102003       -1.3916767780       -2.7385008961
