  62
        -98.94023802
 C         -2.4450667777       -0.9181012199       -0.0207465092
 C         -2.6603814005        0.4551369522        0.2477286519
 C         -4.0349747675        0.8220230887        0.6120959077
 C         -4.9821181548       -0.1297600313        0.6985989536
 C         -6.4204178500        0.0841400748        1.0858238308
 C         -7.3212264517        0.5260582875       -0.0755780360
 C         -7.1163280200        1.9667548241       -0.5452747660
 H         -7.9509028563        2.2100668375       -1.2058067651
 H         -7.1725959929        2.6386156292        0.3116791414
 C         -5.8025362344        2.2047933715       -1.3028098636
 H         -5.3912624298        1.2470244725       -1.6300870407
 H         -6.0019869650        2.7908644687       -2.2028055969
 C         -4.7356093329        2.9527119057       -0.5030788767
 H         -3.8371330936        3.0320066053       -1.1205883952
 H         -5.0838023440        3.9645547047       -0.2839562988
 C         -4.3437746089        2.2744841906        0.8162773324
 H         -5.1381280635        2.3960682478        1.5523475071
 H         -3.4376834793        2.7548841021        1.1936443697
 H         -7.1686978830       -0.1562348951       -0.9149557487
 H         -8.3564008313        0.4185331831        0.2563813778
 H         -6.4774778431        0.8168071956        1.8912187851
 H         -6.7866185282       -0.8743054992        1.4598825851
 O         -4.7259639887       -1.4436841655        0.4571556059
 C         -3.4628799617       -1.8663310715        0.0765928127
 O         -3.3721445019       -3.0936133132       -0.1321241992
 O         -1.7559075217        1.3284986793        0.1918120569
 C         -1.0660586992       -1.4000230803       -0.4301071169
 C         -0.0450150002       -1.0381670870        0.6214593530
 C         -0.3253396976       -1.3115851609        1.9582562827
 C          0.5907516436       -1.0129681531        2.9475979109
 C          1.8142583944       -0.4517987135        2.6256117565
 C          2.1049947023       -0.1770177872        1.2952947281
 C          1.1778600100       -0.4698841898        0.3040153724
 H          1.4329330713       -0.2464908427       -0.7181273724
 N          3.3281261142        0.4119168426        0.9361186103
 S          4.0448511120       -0.0480195838       -0.5215888693
 O          3.4733104806        0.7267411017       -1.5938181744
 O          3.9873809565       -1.4849161932       -0.6696016307
 C          5.7251541676        0.4765742518       -0.2323205730
 C          6.0476333081        1.8071253340       -0.4227606835
 C          7.3447960454        2.2245192402       -0.1706063785
 C          8.2924473255        1.3103978189        0.2657906604
 C          7.9546071020       -0.0218363276        0.4504827705
 C          6.6587321696       -0.4458703549        0.2011672653
 H          6.3527452898       -1.4726222639        0.3221614255
 H          8.6943828496       -0.7305347664        0.7863389593
 H          9.3014885485        1.6379603107        0.4603032060
 H          7.6119399085        3.2588117699       -0.3160595842
 H          5.2803154395        2.4788121439       -0.7711402927
 H          3.9962783807        0.4249488970        1.6944954001
 H          2.5323718875       -0.2218253280        3.3980587819
 H          0.3549358239       -1.2271072000        3.9793546035
 H         -1.2775190027       -1.7600318953        2.2095618285
 H         -1.1263182519       -2.4980627800       -0.4771570945
 C         -0.7190527005       -0.8751685120       -1.8078459340
 C          0.2213715336       -1.6365319988       -2.6913188587
 C         -1.2407439960       -1.5897874206       -3.0164957637
 H         -1.5626636058       -1.0035571890       -3.8640847239
 H         -1.8306493231       -2.4794635594       -2.8491201433
 H          0.9105699255       -1.0800753304       -3.3094930478
 H          0.6309064116       -2.5592337259       -2.3075859837
 H         -0.6833195138        0.2083303724       -1.8431888998
