  62
        -98.94466813
 C          1.9882821321        0.7655183459        0.5657239023
 C          1.9758094019        0.0712290811       -0.6678532418
 C          2.0768768975       -1.3893472009       -0.5768474844
 C          2.1060894891       -1.9837815713        0.6292384029
 C          2.1630836863       -3.4658410664        0.8850472359
 C          3.5785632853       -4.0575739359        0.8306658739
 C          4.1875446660       -4.1624057772       -0.5681109987
 H          5.0792424314       -4.7864111104       -0.4823433136
 H          3.4896006708       -4.6784090141       -1.2279593432
 C          4.5849858082       -2.8157369888       -1.1883459252
 H          4.6362012926       -2.0554620757       -0.4056628961
 H          5.5831957852       -2.8958555652       -1.6243195719
 C          3.6469533714       -2.3248924300       -2.2912025223
 H          3.6836273885       -3.0139484891       -3.1377494637
 H          4.0009284802       -1.3493947150       -2.6337693074
 C          2.1848857484       -2.1688409062       -1.8521196680
 H          1.6465132911       -1.6116141009       -2.6227811266
 H          1.7156540518       -3.1462343075       -1.7401166671
 H          4.2309105824       -3.4571098845        1.4687617688
 H          3.5272561158       -5.0616071905        1.2580390899
 H          1.7605512362       -3.6216814864        1.8885408455
 H          1.5198885997       -3.9819580066        0.1714048730
 O          2.0690780431       -1.2822646239        1.7949484855
 C          2.0177741953        0.1022389537        1.7906261043
 O          2.0058382932        0.6203772114        2.9278159100
 O          1.8902766692        0.6411486203       -1.7873966343
 C          1.8623901965        2.2784522822        0.5791083357
 C          0.5734675151        2.6692166629       -0.1039409934
 C          0.4727055773        3.6995295576       -1.0292956928
 C         -0.7379890346        3.9688430720       -1.6446193238
 C         -1.8620813091        3.2157690301       -1.3616879062
 C         -1.7756824064        2.1963638090       -0.4192220181
 C         -0.5703021057        1.9473716975        0.2135259504
 H         -0.5138211347        1.1515701275        0.9434494418
 N         -2.9020851853        1.4241041674       -0.0828794689
 S         -2.6618712375       -0.1952169786        0.3344033427
 O         -2.2977665541       -0.2661068379        1.7286606733
 O         -1.7631904298       -0.8342324011       -0.6002458474
 C         -4.3210098501       -0.8159213186        0.1235524117
 C         -4.6510112745       -1.5036261236       -1.0287214538
 C         -5.9535960861       -1.9484371778       -1.1941302359
 C         -6.8992346656       -1.6960354545       -0.2117983105
 C         -6.5528083913       -1.0049194538        0.9399969538
 C         -5.2521229079       -0.5590884508        1.1124310725
 H         -4.9323737627       -0.0269049112        1.9931161804
 H         -7.2897582763       -0.8126247085        1.7028960710
 H         -7.9120916113       -2.0423183887       -0.3433847814
 H         -6.2244887557       -2.4885735775       -2.0869204468
 H         -3.8796116631       -1.6808484822       -1.7610562150
 H         -3.6566466582        1.5245065184       -0.7487308424
 H         -2.7982376303        3.4115141845       -1.8619441487
 H         -0.8018035705        4.7663922001       -2.3692761604
 H          1.3444000957        4.2814143512       -1.2802034126
 H          1.7930696955        2.5702600709        1.6378922630
 C          3.0911677269        2.9210909265       -0.0295235903
 C          3.5384412939        4.2776516896        0.4231755949
 C          4.3234172535        3.0616757470        0.8109157670
 H          5.2847878091        2.8960519301        0.3484477521
 H          4.2652305838        2.7163412381        1.8332288804
 H          3.9660560251        4.9494790731       -0.3056237208
 H          2.9542088164        4.7667147676        1.1879290337
 H          3.2231440770        2.6559087184       -1.0721771040
