  62
        -98.93691333
 C         -1.0303201825       -0.7925485173        0.9710175935
 C         -1.6257038590       -0.7102556937       -0.3117167637
 C         -2.2748596037        0.5699677476       -0.6484233118
 C         -2.1835691753        1.6056131736        0.2002116867
 C         -2.7042514439        3.0103051858        0.0245653082
 C         -4.1286898623        3.1725081888       -0.5266707503
 C         -5.1043844206        2.0449728643       -0.1589343345
 H         -4.6738130861        1.4168679298        0.6226436317
 H         -6.0183249108        2.4859328779        0.2431824647
 C         -5.4922338926        1.1751861963       -1.3574254593
 H         -5.6764506585        1.8249498786       -2.2157376986
 H         -6.4289827352        0.6611116695       -1.1292871639
 C         -4.4743797842        0.1050517526       -1.7513862456
 H         -4.4541898531       -0.6829485431       -0.9934410962
 H         -4.8128995652       -0.3553740222       -2.6826686843
 C         -3.0320128069        0.6022549775       -1.9436448679
 H         -2.5150431067       -0.0936253619       -2.6104706665
 H         -3.0095056637        1.5904261265       -2.3976591475
 H         -4.0887809035        3.2654795981       -1.6112906009
 H         -4.5087744464        4.1213649250       -0.1442265197
 H         -2.6416952889        3.4640987731        1.0167304526
 H         -2.0058180534        3.5494873293       -0.6230842986
 O         -1.5223834552        1.5117294540        1.3890024264
 C         -0.9390886276        0.3245371166        1.8017941782
 O         -0.3684270211        0.3970977712        2.9086476340
 H          1.5160006902       -0.4851197890        0.3520938623
 C          1.5460899276       -1.4619380731       -0.1081680185
 C          0.6706085165       -2.4431754732        0.3407375396
 C          0.7195265637       -3.6980339994       -0.2486905778
 C          1.6072948398       -3.9441356303       -1.2827927379
 C          2.4410953272       -2.9493751454       -1.7595870561
 C          2.4027401184       -1.6904065250       -1.1694981486
 N          3.2302805410       -0.6474920808       -1.6122869620
 S          2.6821069405        0.9332175322       -1.5514462360
 O          1.2635292861        1.0365533426       -1.8026664043
 O          3.5416945929        1.6387221764       -2.4804550042
 C          3.0680912643        1.4669985294        0.1022084986
 C          2.0977971059        2.0911819017        0.8599344029
 C          2.4094244574        2.5043036621        2.1451805892
 C          3.6847656123        2.2915422686        2.6449525781
 C          4.6524475891        1.6719829434        1.8680752567
 C          4.3448278773        1.2541794758        0.5834580309
 H          5.0672498911        0.7673753779       -0.0500150962
 H          5.6426100307        1.5096237653        2.2623749895
 H          3.9218960429        2.6094883952        3.6479508367
 H          1.6485673905        2.9710500209        2.7500887657
 H          1.1112766712        2.2236442678        0.4412343947
 H          3.7493238256       -0.8386278509       -2.4568169289
 H          3.1086691913       -3.1378557142       -2.5865764093
 H          1.6338480955       -4.9214211703       -1.7407817278
 H          0.0451845844       -4.4727329004        0.0775435439
 C         -0.2900829243       -2.0389222506        1.4319866401
 H          0.3090774536       -1.7025914740        2.2948488467
 C         -1.1715682282       -3.1703755152        1.9351875868
 C         -2.5335167212       -2.8912967894        2.4962155535
 C         -2.3934441302       -3.6352945989        1.2038946532
 H         -2.6125680970       -4.6932884219        1.1986510111
 H         -2.6467319712       -3.1322017122        0.2848549823
 H         -2.8496414128       -3.4337584042        3.3746470017
 H         -2.8855140819       -1.8700370135        2.4624078686
 H         -0.5923915030       -3.9342130575        2.4451252553
 O         -1.6259150809       -1.6504717806       -1.1469661363
