  62
        -98.94397591
 C          1.7956935424        1.1722558459        0.4071164699
 C          1.9889318828        0.2510772487       -0.6503045232
 C          3.3818944816        0.0546075013       -1.0735225875
 C          4.3671514553        0.7578055419       -0.4861726419
 C          5.8313265262        0.6854641756       -0.8255983536
 C          6.5767467067       -0.4617222950       -0.1299483528
 C          6.2644913790       -1.8594479383       -0.6659688402
 H          6.3932505880       -1.8696356325       -1.7486947687
 H          7.0076017639       -2.5384539596       -0.2431383145
 C          4.8640121283       -2.3767464588       -0.3079865176
 H          4.4537116323       -1.7831339002        0.5122195806
 H          4.9354444294       -3.4067851248        0.0485609531
 C          3.8685065364       -2.3684569110       -1.4683689261
 H          4.2000097551       -3.0660506511       -2.2409409979
 H          2.9014056464       -2.7157523586       -1.0942095784
 C          3.6586883103       -0.9909477600       -2.1109492072
 H          4.5280566925       -0.7175247396       -2.7087084884
 H          2.7855987821       -1.0489942268       -2.7657726405
 H          6.3560630645       -0.4241107352        0.9392901983
 H          7.6463817609       -0.2787057054       -0.2551754946
 H          5.9534685469        0.5984977736       -1.9054854985
 H          6.2725939469        1.6298327145       -0.4998482058
 O          4.1337292401        1.6587233779        0.5051682443
 C          2.8536417835        1.8670516402        0.9932143009
 O          2.7883922247        2.6842165319        1.9339402918
 H         -2.0787237756        0.3220007974        0.4150187382
 C         -1.4827953662       -0.2777702912        1.0812183275
 C         -0.2074932951        0.1308891445        1.4376671685
 C          0.5285823397       -0.6680773596        2.3096718645
 C          0.0056173136       -1.8482080438        2.7996044502
 C         -1.2632114541       -2.2592429351        2.4286876845
 C         -2.0091680665       -1.4690432910        1.5642932730
 N         -3.3160266177       -1.8350121971        1.2018589646
 S         -3.7771632305       -1.7755950705       -0.4103060775
 O         -4.9582198161       -2.6125763901       -0.4689665462
 O         -2.6974330791       -2.1450541950       -1.2939386922
 C         -4.2681706249       -0.0876591652       -0.6862563606
 C         -3.7510229313        0.6016060364       -1.7650267792
 C         -4.1772037452        1.9004105971       -1.9959400745
 C         -5.1075400930        2.4827501510       -1.1480423915
 C         -5.6155225795        1.7764371357       -0.0679229792
 C         -5.1969454409        0.4765103069        0.1660835884
 H         -5.5725369507       -0.1073449185        0.9895338380
 H         -6.3359750185        2.2350345750        0.5898372586
 H         -5.4352008576        3.4943293659       -1.3299348995
 H         -3.7797687873        2.4514642870       -2.8336972035
 H         -3.0191891001        0.1133171598       -2.3895787933
 H         -3.6407137014       -2.6907667717        1.6298826410
 H         -1.6721232721       -3.1843995131        2.8063566425
 H          0.5907317553       -2.4579313135        3.4718487971
 H          1.5215363892       -0.3480514294        2.5965815753
 C          0.4003471877        1.4233876921        0.9492086198
 H          0.5307982536        2.0835719780        1.8195911301
 C         -0.4476615901        2.1416471701       -0.0793439080
 C         -1.5462846388        3.0580763520        0.3663999332
 C         -0.2944269139        3.6240405352       -0.2318937575
 H         -0.3395689824        4.0469208273       -1.2240862920
 H          0.4112609186        4.1174916873        0.4207933510
 H         -1.6953125849        3.1744674182        1.4291237839
 H         -2.4555827160        3.0939270936       -0.2139855584
 H         -0.5962341925        1.5573275376       -0.9805824169
 O          1.0522991341       -0.3725859955       -1.2140211060
