  62
        -98.94533421
 C         -2.3551456590       -0.4075269327        0.0952666521
 C         -1.5585966344        0.2615882061       -0.8606535567
 C         -1.6183727417        1.7338394348       -0.8565953643
 C         -2.3752304719        2.3566385310        0.0633744232
 C         -2.6627262379        3.8290072722        0.2373736862
 C         -1.5465981421        4.8338443812       -0.0568404868
 C         -0.1537962519        4.4077639014        0.4287599476
 H          0.2740023013        5.2081616762        1.0357472001
 H         -0.2275625559        3.5224013986        1.0643252067
 C          0.8131160784        4.1098410136       -0.7180819867
 H          0.7037215871        4.8757650762       -1.4895007924
 H          1.8355110288        4.1656264519       -0.3358609142
 C          0.6403336299        2.7265495107       -1.3397841633
 H          0.8829337624        1.9718220376       -0.5878633797
 H          1.3653263690        2.6232866215       -2.1511871370
 C         -0.7652307029        2.4202321065       -1.8858566131
 H         -1.2429293214        3.3184681602       -2.2704276662
 H         -0.6603821664        1.7057454946       -2.7068452490
 H         -1.5083602036        5.0380656257       -1.1256366361
 H         -1.8332642493        5.7671682348        0.4316876743
 H         -3.5319964647        4.0713060850       -0.3828392426
 H         -2.9774078407        3.9333398062        1.2793018659
 O         -3.0861517656        1.6688128949        1.0048624571
 C         -3.0940768789        0.2869770077        1.0487280916
 O         -3.7885530600       -0.1980802140        1.9672402853
 H         -0.4084102749       -0.9687924703        1.6490864568
 C         -0.0895168338       -1.8372932759        1.0909757996
 C         -0.9831626674       -2.4759853581        0.2411659968
 C         -0.5486988812       -3.5989433985       -0.4528891954
 C          0.7533606649       -4.0485871606       -0.3165407903
 C          1.6536817184       -3.3776859092        0.4908277041
 C          1.2260652301       -2.2581825740        1.1949730894
 N          2.1082925935       -1.5203935213        2.0126163444
 S          2.3957464018        0.0718667860        1.5704850276
 O          3.3743926989        0.5531748866        2.5224691800
 O          1.1537644785        0.7977488266        1.5148355892
 C          3.1572452563       -0.0461639628       -0.0400123013
 C          2.3889982152       -0.3644456901       -1.1424217710
 C          3.0190802163       -0.5157416329       -2.3688529041
 C          4.3911691760       -0.3516292714       -2.4735704541
 C          5.1474904648       -0.0333908773       -1.3554229207
 C          4.5271719549        0.1158970700       -0.1261606918
 H          5.0719724059        0.3639781549        0.7704924935
 H          6.2146264999        0.0966225009       -1.4369292154
 H          4.8723975551       -0.4712535251       -3.4315102398
 H          2.4219491941       -0.7616217398       -3.2322444578
 H          1.3197083615       -0.4793767227       -1.0531642708
 H          2.9950025619       -1.9806819141        2.1692681225
 H          2.6767469274       -3.7117752767        0.5766830653
 H          1.0761289097       -4.9224470965       -0.8614346775
 H         -1.2298828957       -4.1200213239       -1.1055317834
 C         -2.3837859722       -1.9247018923        0.1306397788
 H         -2.9345056287       -2.1974149637        1.0434511704
 C         -3.1399341943       -2.4522917767       -1.0727485716
 C         -3.9340163057       -3.7195306807       -0.9770856473
 C         -4.6370805351       -2.3991198195       -1.0627847170
 H         -5.1509363667       -2.1433828999       -1.9772082047
 H         -5.1105087080       -2.0088684989       -0.1732047942
 H         -3.9701702153       -4.3720905374       -1.8364331589
 H         -3.9427604496       -4.2349787913       -0.0285649344
 H         -2.6382683867       -2.2290775291       -2.0074560973
 O         -0.8442814795       -0.3456310600       -1.7016435171
