  62
        -98.93356569
 C          2.5174373880        0.9716842335        0.2227757617
 C          2.7603406260       -0.1114386319        1.0961920486
 C          3.4674864541       -1.2794170899        0.5356858730
 C          3.8161641758       -1.2595660517       -0.7645783805
 C          4.5015566141       -2.3367832751       -1.5629064498
 C          3.5601853828       -3.4957402530       -1.9274623900
 C          2.6698159680       -3.9825251998       -0.7873574743
 H          2.0640499221       -3.1493373492       -0.4262533822
 H          1.9838684541       -4.7282746858       -1.1975850041
 C          3.4079553789       -4.6218406231        0.3864878469
 H          3.9920443471       -5.4701022180        0.0229564397
 H          2.6510639020       -5.0099994082        1.0728273933
 C          4.3349427408       -3.6966404149        1.1782095467
 H          4.5826471208       -4.2070429930        2.1135402828
 H          5.2746066380       -3.5394048263        0.6556177447
 C          3.7184701314       -2.3559016341        1.5646281698
 H          2.7568839403       -2.5320424239        2.0602198827
 H          4.3523344080       -1.8883122604        2.3278790023
 H          2.9091876318       -3.1591699974       -2.7380684182
 H          4.1635292184       -4.3246914473       -2.3012718412
 H          5.3742532233       -2.6999989391       -1.0283939508
 H          4.8485223508       -1.8678736600       -2.4863129001
 O          3.5329057782       -0.2021098982       -1.5784119009
 C          2.8870004130        0.9313851323       -1.1212229279
 O          2.7080674883        1.8079531232       -1.9871956046
 O          2.3946427598       -0.1142485817        2.3042943539
 C          1.8090241147        2.2035289021        0.7570320690
 C          0.4880260077        2.3776326804        0.0480367755
 C          0.1262134522        3.5303926613       -0.6344711029
 C         -1.1011509391        3.6093912406       -1.2707334998
 C         -1.9903446932        2.5519944729       -1.2374217586
 C         -1.6449383203        1.3978608431       -0.5446420378
 C         -0.4167396609        1.3229629829        0.0947565967
 H         -0.1439775174        0.4251934649        0.6362366905
 N         -2.5347291875        0.3063690054       -0.5114753324
 S         -4.1670822426        0.6518076166       -0.2398961381
 O         -4.7531343717        1.0901631913       -1.4816203826
 O         -4.3039524670        1.5597227952        0.8772890963
 C         -4.7974737641       -0.9593682948        0.1844259418
 C         -4.9943675116       -1.2839465672        1.5130660628
 C         -5.4723782950       -2.5457058839        1.8307514575
 C         -5.7403030158       -3.4567911146        0.8202412638
 C         -5.5366569597       -3.1163060199       -0.5089745336
 C         -5.0611334418       -1.8559785936       -0.8338336262
 H         -4.8982177328       -1.5438043855       -1.8521422140
 H         -5.7483597061       -3.8268854968       -1.2915741925
 H         -6.1131610239       -4.4375003403        1.0702218710
 H         -5.6343202707       -2.8121636381        2.8628251413
 H         -4.7804246664       -0.5411503867        2.2649130963
 H         -2.2144609342       -0.4199448150        0.1148874743
 H         -2.9480580304        2.6062967277       -1.7291849244
 H         -1.3687594913        4.5093782871       -1.8038826814
 H          0.8052916801        4.3656599994       -0.6766557422
 H          1.5990377781        1.9828964682        1.8142024430
 C          2.7118448133        3.4158455481        0.6842545583
 C          2.4918136002        4.5697863768        1.6148042655
 C          3.6751739899        3.6701646275        1.8032815309
 H          4.6567037983        4.0494509337        1.5617905738
 H          3.6668177845        2.9784792807        2.6330730591
 H          2.6621816137        5.5699923808        1.2463355573
 H          1.6781932116        4.4931077830        2.3202171973
 H          3.0511483267        3.6258219235       -0.3236236630
