  62
        -98.93748825
 C         -1.7604569874       -0.3667788138        1.1704106856
 C         -2.0036446409       -0.4528744751       -0.2189897529
 C         -3.4158650289       -0.5661725020       -0.6382052854
 C         -4.3728956539       -0.5967426011        0.3078530057
 C         -5.8644548785       -0.6611281742        0.1159601344
 C         -6.4632399500        0.6914086681       -0.3064592698
 C         -5.6597236570        1.4526166993       -1.3582762898
 H         -4.6427149085        1.6057776966       -0.9919855550
 H         -6.1142557233        2.4404316300       -1.4724692127
 C         -5.6095220430        0.8003347916       -2.7377999992
 H         -5.0599000939        1.4770777678       -3.3970891678
 H         -6.6261507830        0.7103514796       -3.1275717313
 C         -4.9431975701       -0.5748608219       -2.8036906614
 H         -4.7880473508       -0.8098182385       -3.8608790433
 H         -5.6013447096       -1.3448088116       -2.4103267647
 C         -3.5730152518       -0.6559815498       -2.1370506216
 H         -2.9268410857        0.1268071685       -2.5502289644
 H         -3.1013601803       -1.6024422257       -2.4278958566
 H         -6.5262947046        1.3233263254        0.5828491388
 H         -7.4775286074        0.5219691941       -0.6715932365
 H         -6.1142740479       -1.4386927822       -0.5996605461
 H         -6.2938794741       -0.9450711047        1.0792103021
 O         -4.0872203568       -0.5197615383        1.6398984019
 C         -2.7932883087       -0.3969549506        2.1052448428
 O         -2.6918572387       -0.3217280454        3.3473023464
 H          2.1274173173        0.0375070265        0.4778445260
 C          1.5682325292        0.9568601303        0.4995611726
 C          0.3099040501        0.9924645869        1.0776427042
 C         -0.3772978176        2.2037525287        1.1055561612
 C          0.1753329573        3.3414957159        0.5516077671
 C          1.4286989796        3.2992395682       -0.0342402172
 C          2.1274293532        2.0988657407       -0.0589809408
 N          3.3818411987        2.0175928247       -0.6752225375
 S          4.5571924209        0.9660179184       -0.1322338942
 O          4.5806109704        0.8860791160        1.3099049152
 O          5.7757567329        1.4381432425       -0.7552093165
 C          4.1240535515       -0.6151862656       -0.8272598693
 C          3.5659322275       -0.6727536483       -2.0885398744
 C          3.2552381453       -1.9116427724       -2.6257760979
 C          3.5130323038       -3.0655734520       -1.9017401577
 C          4.0821364709       -2.9914881755       -0.6399149941
 C          4.3922637950       -1.7552819736       -0.0955176543
 H          4.8249908859       -1.6497947874        0.8869350554
 H          4.2817498858       -3.8903401709       -0.0781846298
 H          3.2665890049       -4.0280035088       -2.3219393576
 H          2.8079570943       -1.9724449848       -3.6048386704
 H          3.3697352214        0.2415502694       -2.6229795868
 H          3.7630378123        2.8891567271       -1.0110334436
 H          1.8595813528        4.1866324089       -0.4723812164
 H         -0.3721352576        4.2719007515        0.5767128541
 H         -1.3569414027        2.2374209666        1.5636829138
 C         -0.3381254109       -0.2295147677        1.6816464088
 H         -0.4181422139       -0.0712082011        2.7674622754
 C          0.4306341544       -1.5102760221        1.4312519153
 C          1.5678258800       -1.8962990521        2.3269752901
 C          0.2734715555       -2.6484264110        2.3924394720
 H          0.2409796219       -3.6536618236        2.0004493613
 H         -0.3704654998       -2.4910104673        3.2457093301
 H          1.8142669312       -1.2291978717        3.1394648589
 H          2.4235759643       -2.3862711149        1.8880476975
 H          0.5051931361       -1.7513705957        0.3767957499
 O         -1.0879449028       -0.4292854169       -1.0822160239
