  62
        -98.93471554
 C         -2.6012256139       -1.1334458299       -0.3904960206
 C         -2.0486680158        0.0461636660       -0.9393348778
 C         -2.8084212372        1.2978655786       -0.7360394916
 C         -3.9772344263        1.2508186758       -0.0712069874
 C         -4.9056585082        2.3840526989        0.2773221487
 C         -4.3912741528        3.2345495732        1.4489639248
 C         -2.9109562556        3.5990680608        1.3750579212
 H         -2.6499134310        4.1178627470        2.3014492183
 H         -2.3148623749        2.6845565448        1.3424324540
 C         -2.5207904946        4.5031650755        0.2079675150
 H         -3.1012228952        5.4269151572        0.2609123601
 H         -1.4676413953        4.7637862467        0.3422561883
 C         -2.6849790461        3.9018156223       -1.1899140431
 H         -3.7231120637        3.9241243374       -1.5101645346
 H         -2.1319447160        4.5408207473       -1.8843875421
 C         -2.1173683298        2.4946372539       -1.3445751491
 H         -1.0910695176        2.4778496477       -0.9583910145
 H         -2.0274711203        2.2688106294       -2.4138386158
 H         -4.9901519999        4.1453232733        1.5028287122
 H         -4.5492419936        2.6710430277        2.3718670406
 H         -5.0883270778        3.0014674799       -0.5970152365
 H         -5.8552748963        1.9300377972        0.5690310005
 O         -4.4778969086        0.0852900886        0.4312061617
 C         -3.8083937553       -1.1137255363        0.3115229235
 O         -4.3814414575       -2.0810022219        0.8522359225
 O         -0.9659714839        0.0807901772       -1.5830403659
 C         -1.8830078220       -2.4724133383       -0.4749730794
 C         -0.6658558090       -2.3819950190        0.4129887501
 C         -0.7926829100       -2.6405481146        1.7747921829
 C          0.2784523356       -2.4601169759        2.6303634178
 C          1.4936642184       -2.0040598256        2.1493392589
 C          1.6261375607       -1.7372114363        0.7938534825
 C          0.5586718211       -1.9465149265       -0.0687423653
 H          0.6698642924       -1.7180032355       -1.1166414871
 N          2.8521135079       -1.2443351164        0.2968153855
 S          3.4435814490        0.1208860293        1.1045117176
 O          4.1584215620       -0.3230017451        2.2758850404
 O          2.3755043125        1.0668609037        1.3423329280
 C          4.5914177958        0.7661972694       -0.0963405066
 C          4.1092952718        1.5912018121       -1.0951782891
 C          4.9913777229        2.0752358707       -2.0482090671
 C          6.3322418479        1.7252840006       -1.9882320453
 C          6.8003272296        0.8953343481       -0.9806724442
 C          5.9237435302        0.4081963296       -0.0239378577
 H          6.2412275632       -0.2337917489        0.7809627304
 H          7.8434609289        0.6269387228       -0.9372856397
 H          7.0158014854        2.1042396468       -2.7314803950
 H          4.6291101076        2.7212476003       -2.8317728184
 H          3.0603686396        1.8444936650       -1.1002182671
 H          2.7814265318       -1.0433061245       -0.6929154887
 H          2.3292479933       -1.8275408466        2.8075907697
 H          0.1645778773       -2.6643197194        3.6846598782
 H         -1.7514099032       -2.9624504035        2.1580300769
 H         -2.5703600319       -3.2088854597       -0.0386325006
 C         -1.5773883158       -2.8764781471       -1.9018417869
 C         -1.1717113585       -4.2903334492       -2.1874868333
 C         -2.5187551997       -3.7952910039       -2.6183211010
 H         -2.6965948822       -3.6309520132       -3.6705144986
 H         -3.3883522429       -4.1404520847       -2.0782207263
 H         -0.4236917523       -4.4703492557       -2.9442198333
 H         -1.1256435192       -4.9720341775       -1.3516707437
 H         -1.1196640631       -2.0883539893       -2.4855081856
