  62
        -98.94178303
 C          2.5366794896        0.3253849202        0.0172009009
 C          2.2472867799        1.3599633806       -0.8992689788
 C          1.5374138200        2.5357449905       -0.3659843384
 C          1.2104708697        2.5597082800        0.9381125515
 C          0.4108525197        3.6019400698        1.6709910217
 C         -1.0839555604        3.2352064200        1.6572351913
 C         -1.8693521400        3.7982477306        0.4744309513
 H         -2.8847492401        3.4002060307        0.5408700110
 H         -1.9310831599        4.8854069906        0.5665503017
 C         -1.3013748398        3.4515410911       -0.9037715487
 H         -1.0177965299        2.3966777710       -0.9286211590
 H         -2.1008580596        3.5789148714       -1.6370853888
 C         -0.1117996196        4.3350100011       -1.3082241281
 H         -0.2894343593        4.7436381615       -2.3055295680
 H         -0.0508112996        5.1865014808       -0.6305741977
 C          1.2438393603        3.6208359709       -1.3670628981
 H          2.0423779704        4.3691793108       -1.3067677576
 H          1.3499989405        3.1315465613       -2.3408758182
 H         -1.1641196305        2.1444385600        1.6589932308
 H         -1.5444285605        3.6025646997        2.5770721313
 H          0.5802337599        4.5898415100        1.2526736122
 H          0.7644346395        3.5913685494        2.7041144418
 O          1.5405062794        1.5548925496        1.7959249912
 C          2.1671184393        0.4042939497        1.3598054209
 O          2.3595305490       -0.4489002507        2.2483940406
 O          2.5584328902        1.2978907710       -2.1221196687
 C          3.1363210895       -0.9741991197       -0.4918910795
 C          2.1399125293       -2.0799330097       -0.2362794101
 C          2.4658287690       -3.3162233999        0.3045186195
 C          1.4712176389       -4.2399527899        0.5802405589
 C          0.1403841790       -3.9460121196        0.3471860987
 C         -0.1926648608       -2.7189877594       -0.2165964609
 C          0.8083637494       -1.8179516594       -0.5321875503
 H          0.5395040796       -0.8699682192       -0.9750494200
 N         -1.5300623507       -2.3673323591       -0.4789013210
 S         -1.9334043705       -0.7330427791       -0.2949180204
 O         -1.6015465901       -0.0408485887       -1.5147486401
 O         -1.3665777307       -0.2084353396        0.9261820499
 C         -3.7067439105       -0.8515847089       -0.1503926709
 C         -4.2921606708       -0.8062818793        1.1004406890
 C         -5.6696065308       -0.9258597192        1.2009250187
 C         -6.4331930806       -1.0915513386        0.0552654585
 C         -5.8312978804       -1.1337965182       -1.1937907114
 C         -4.4550678903       -1.0125512784       -1.3013043411
 H         -3.9428614701       -1.0275783181       -2.2490953010
 H         -6.4282932402       -1.2591630978       -2.0825694016
 H         -7.5045690006       -1.1849313385        0.1362001382
 H         -6.1397702910       -0.8886511095        2.1703374886
 H         -3.6577446510       -0.6675487297        1.9614800792
 H         -2.1910942208       -2.9671599092       -0.0036918914
 H         -0.6340516412       -4.6541367496        0.6001233383
 H          1.7358933386       -5.1947510801        1.0089182486
 H          3.4939803290       -3.5497362901        0.5282379096
 H          3.2458474898       -0.8443016693       -1.5792750294
 C          4.4991318894       -1.2307355501        0.1135094407
 C          5.5212226594       -2.0284193200       -0.6387396894
 C          5.6949062596       -0.5489505700       -0.4784844288
 H          6.4629992095       -0.1862036004        0.1877608215
 H          5.5272683498        0.0841607303       -1.3376239986
 H          6.1757449292       -2.6823541103       -0.0826344695
 H          5.2446133496       -2.4023263595       -1.6129240596
 H          4.4603688591       -1.3286253905        1.1925542307
