  62
        -98.93582313
 C         -2.3752246393       -0.5289419407        0.9037080750
 C         -3.4440932727       -1.0842899231        0.1562691697
 C         -4.7264837723       -0.3640777086        0.2422750298
 C         -4.8231240719        0.7373788660        1.0067422566
 C         -6.0471167414        1.5973484216        1.1276531157
 C         -6.0348728328        2.7275024787        0.0886827161
 C         -5.7330946643        2.2555744920       -1.3337502212
 H         -5.7810322054        3.1318655977       -1.9838920353
 H         -4.7073285159        1.8816570605       -1.3745898942
 C         -6.6883920549        1.1751833267       -1.8597929137
 H         -7.5972648790        1.1594331183       -1.2572952841
 H         -6.9800989188        1.4328997094       -2.8800872049
 C         -6.0896975834       -0.2316921710       -1.9098421349
 H         -5.1308750969       -0.2030362550       -2.4334134728
 H         -6.7619627732       -0.8668046217       -2.4928040585
 C         -5.8768395404       -0.9151301002       -0.5531483546
 H         -6.8003626716       -0.8768910888        0.0277868316
 H         -5.6328901479       -1.9641407716       -0.7446833669
 H         -5.2713349166        3.4536810448        0.3771646615
 H         -7.0050771402        3.2271704861        0.1106467867
 H         -6.0622367839        2.0345594548        2.1274104870
 H         -6.9335759046        0.9795766446        0.9981784902
 O         -3.7821703629        1.2275459394        1.7285879472
 C         -2.5410166458        0.6181102873        1.6848568989
 O         -1.6738827544        1.1792358602        2.3863741483
 O         -3.3556465981       -2.1178778811       -0.5534293880
 C         -0.9757578045       -1.1206185920        0.9192830155
 C         -0.1409389195       -0.5869140850       -0.2163753529
 C         -0.6168722821       -0.5681490682       -1.5240047524
 C          0.1779500138       -0.0934073959       -2.5511098466
 C          1.4632388970        0.3535699975       -2.2999104411
 C          1.9449108042        0.3464295938       -0.9961994088
 C          1.1377621577       -0.1133442169        0.0353382652
 H          1.5205992503       -0.0993089235        1.0453890831
 N          3.2364609023        0.8105230915       -0.7024581370
 S          4.0974509163        0.0208115585        0.5182136372
 O          3.9092075418       -1.4077880935        0.4058931860
 O          3.7540481977        0.6115424289        1.7873061098
 C          5.7667008072        0.4663634403        0.0787066314
 C          6.5450590464       -0.4289274516       -0.6302658616
 C          7.8304874805       -0.0581389546       -0.9931357505
 C          8.3112872270        1.1954115880       -0.6461095006
 C          7.5182031238        2.0829018765        0.0664585007
 C          6.2327659000        1.7183297386        0.4339210759
 H          5.5838769354        2.3699723872        0.9957743573
 H          7.8965866964        3.0553940141        0.3371572057
 H          9.3116608328        1.4817498162       -0.9298525615
 H          8.4505825272       -0.7471467553       -1.5436044996
 H          6.1313535648       -1.3950005860       -0.8710456897
 H          3.8003938844        0.9588213627       -1.5282750642
 H          2.0861822147        0.7124899512       -3.1050425799
 H         -0.2026281819       -0.0845285690       -3.5614803997
 H         -1.6090537200       -0.9415651138       -1.7264365769
 H         -0.5193913348       -0.7582853719        1.8553075915
 C         -0.9647029553       -2.6426837485        0.9811323348
 C         -0.5518291460       -3.5189634683       -0.1587740489
 C          0.3422591528       -3.3785053494        1.0342732775
 H          0.4370574859       -4.2125044850        1.7135814282
 H          1.2497872713       -2.8016387832        0.9202510326
 H         -1.0938063029       -4.4415928065       -0.2991797394
 H         -0.2480509689       -3.0491359695       -1.0806405642
 H         -1.7602968260       -3.0236529805        1.6140182891
