  62
        -98.94381243
 C         -1.7308134800       -1.1587391199        0.2682582513
 C         -2.2259130201       -0.1591644990        1.1464141502
 C         -3.6561727501        0.1560282206        1.0394932301
 C         -4.4115151001       -0.5184932906        0.1538867010
 C         -5.8720048502       -0.2767125312       -0.0924361390
 C         -6.0845331307        0.7497834675       -1.2134854902
 C         -5.2550290809        2.0231852678       -1.0483064518
 H         -4.1956652409        1.7756984080       -1.1502898417
 H         -5.5099627112        2.6878762569       -1.8765810625
 C         -5.4767431708        2.7564886693        0.2820169774
 H         -5.5791202711        3.8248090991        0.0799812662
 H         -6.4091765707        2.4225656896        0.7386206680
 C         -4.3362161406        2.6026675807        1.2904164674
 H         -4.4914342406        3.3299259616        2.0920717666
 H         -3.3850695007        2.8467812504        0.8095143770
 C         -4.2044060502        1.2219192115        1.9459074490
 H         -3.4896979601        1.3125429526        2.7692514287
 H         -5.1682393301        0.9181170718        2.3598316195
 H         -7.1447938107        1.0063338172       -1.2505255503
 H         -5.8129963907        0.2857340165       -2.1643707497
 H         -6.3368957702        0.0723509798        0.8275024607
 H         -6.3315670601       -1.2220667816       -0.3856423079
 O         -3.9099160701       -1.4813630214       -0.6565878080
 C         -2.5628618500       -1.8176007711       -0.6379350878
 O         -2.2650345900       -2.7077961920       -1.4564998269
 O         -1.5036050200        0.4353494321        1.9918850394
 C         -0.2476219499       -1.4813378095        0.3551461714
 C          0.5006105398       -0.8357629706       -0.7865641795
 C          0.4983156596       -1.3777421621       -2.0680522789
 C          1.1875057093       -0.7535817931       -3.0912826797
 C          1.9101674691        0.4031143973       -2.8558177212
 C          1.9163465792        0.9541355788       -1.5802431518
 C          1.2087488795        0.3362436198       -0.5578377910
 H          1.1960334096        0.7917346109        0.4213629885
 N          2.6441950090        2.1220192892       -1.3067681332
 S          3.4656700393        2.2502301511        0.1429560065
 O          2.5675748494        2.6380686321        1.2005800162
 O          4.5441506590        3.1746266210       -0.1371634548
 C          4.1296115297        0.6236180016        0.4578585882
 C          3.7891413400       -0.0456723072        1.6150570690
 C          4.3176016403       -1.3074822768        1.8403036804
 C          5.1670547903       -1.8777003177        0.9047155309
 C          5.5005330299       -1.1916806990       -0.2529966100
 C          4.9810018396        0.0722054207       -0.4795551913
 H          5.2322927593        0.6374521197       -1.3620041120
 H          6.1623656999       -1.6374526197       -0.9777103096
 H          5.5697477805       -2.8625808974        1.0805767319
 H          4.0626247306       -1.8404329459        2.7428267810
 H          3.1170558900        0.4289874335        2.3127297886
 H          3.1917622988        2.4709970685       -2.0796618637
 H          2.4564756489        0.8831397165       -3.6534492418
 H          1.1707845193       -1.1786242843       -4.0833759092
 H         -0.0724225202       -2.2720202724       -2.2596276378
 H          0.0920043802       -1.0000522884        1.2824891508
 C          0.0391792904       -2.9672561893        0.4495105330
 C          1.4173121706       -3.4091491186        0.8377452633
 C          0.2769955708       -3.5827544077        1.7941989437
 H         -0.0983533590       -4.5783837976        1.9775964049
 H          0.2283427208       -2.9334015868        2.6563500929
 H          1.8279456407       -4.2869797690        0.3637024642
 H          2.1441780405       -2.6380155782        1.0450191223
 H         -0.4954417896       -3.5599802203       -0.2806630462
