  62
        -98.94391159
 C         -1.7733801667       -0.4795693019       -0.3999290714
 C         -3.0124857827       -1.0703998378       -0.7436279837
 C         -4.1338871032       -0.7882150559        0.1620978173
 C         -3.9246768967       -0.0212199102        1.2479618739
 C         -4.9868725191        0.3863373028        2.2266001950
 C         -5.6337823913        1.7185062821        1.8223782711
 C         -6.0741869748        1.7726894387        0.3595106758
 H         -6.5434044175        2.7454138629        0.1969781914
 H         -5.1903500714        1.7310546459       -0.2810516720
 C         -7.0489586293        0.6602665047       -0.0512350841
 H         -7.5019172003        0.2175832276        0.8366807335
 H         -7.8558209791        1.1011943186       -0.6404573948
 C         -6.4260058955       -0.4447879302       -0.9063522707
 H         -5.8920224999        0.0013912054       -1.7491813980
 H         -7.2356096390       -1.0535254656       -1.3178356287
 C         -5.4672100952       -1.3934674669       -0.1758858977
 H         -5.9511799431       -1.7867244204        0.7206302632
 H         -5.2544442372       -2.2315303466       -0.8463543939
 H         -6.4944987569        1.8944301261        2.4702171929
 H         -4.9112459049        2.5199590768        1.9924720139
 H         -5.7427830972       -0.3947512343        2.2814938904
 H         -4.5241362426        0.5003939149        3.2084362723
 O         -2.7164325805        0.5138951861        1.5557685095
 C         -1.6119728558        0.3079253079        0.7404872979
 O         -0.5725074004        0.8642293339        1.1364651719
 H          2.1120328956       -0.4237359294       -1.7067399035
 C          1.8853779698       -1.1087037194       -0.9039059337
 C          0.5637964953       -1.3682699600       -0.5680853015
 C          0.3119877390       -2.2718752265        0.4597562991
 C          1.3483669093       -2.8669499884        1.1545058258
 C          2.6645316826       -2.5890824539        0.8293032544
 C          2.9282616119       -1.7127053325       -0.2125706429
 N          4.2752416022       -1.4309998495       -0.5412681159
 S          5.0746868037       -0.4108755523        0.5236121233
 O          6.4167405805       -0.2702553855        0.0062127870
 O          4.9498806900       -0.9439158753        1.8548354820
 C          4.2019165504        1.1363340134        0.3704060903
 C          2.9701116642        1.2658828580        0.9796053639
 C          2.2341502278        2.4208836398        0.7661066177
 C          2.7445708124        3.4228901416       -0.0447758281
 C          3.9883925882        3.2819530505       -0.6430514834
 C          4.7217200408        2.1237814658       -0.4442295073
 H          5.6877995010        1.9668844757       -0.8965734897
 H          4.3815630345        4.0660961292       -1.2701449230
 H          2.1658567846        4.3179665043       -0.2123885562
 H          1.2562454800        2.5030374668        1.2133303031
 H          2.5906135858        0.4738174717        1.6045850623
 H          4.3874168224       -1.0693046521       -1.4790843416
 H          3.4855978781       -3.0248512590        1.3743188997
 H          1.1294143289       -3.5540714765        1.9580858227
 H         -0.7133578422       -2.4964593350        0.7202387593
 C         -0.5792288662       -0.7126817343       -1.3042912810
 H         -0.9333038494       -1.4132806805       -2.0763342752
 C         -0.1731891232        0.5865099350       -1.9740222785
 C          0.3413161805        0.5955671362       -3.3820746454
 C         -1.0269937866        1.1264263606       -3.0805833787
 H         -1.1935909137        2.1917237777       -3.1326501917
 H         -1.8813347551        0.5359106492       -3.3785866694
 H          1.1157435994        1.3013198076       -3.6434905802
 H          0.4105625718       -0.3502660136       -3.8984589048
 H          0.2465450911        1.2987326045       -1.2720119629
 O         -3.1706438873       -1.8029901974       -1.7580016315
