  62
        -98.93899092
 C          2.3437013663        0.7835275409        0.6115532130
 C          3.4323037308        0.9866790636       -0.2721384891
 C          4.6607540191        0.2376426132        0.0362998237
 C          4.6939858751       -0.5769485406        1.1053948852
 C          5.8574961990       -1.4415269665        1.4936631507
 C          5.7535732568       -2.8335351950        0.8546822837
 C          5.4643814166       -2.8047197340       -0.6462010819
 H          5.4436457800       -3.8402127402       -0.9928563362
 H          4.4658126133       -2.3921332337       -0.8086322857
 C          6.4827875862       -2.0084932954       -1.4740285906
 H          6.7411022323       -2.5883782947       -2.3625673684
 H          7.3995463441       -1.8699968775       -0.8998288363
 C          5.9793564222       -0.6483951949       -1.9605767555
 H          5.0127451744       -0.7712506587       -2.4554379031
 H          6.6841477132       -0.2722463287       -2.7068604376
 C          5.8341427921        0.4332474100       -0.8827981188
 H          6.7610817200        0.5111478938       -0.3114162279
 H          5.6612814279        1.3864874051       -1.3904752887
 H          6.6880365362       -3.3672715538        1.0372186077
 H          4.9469703171       -3.3810327927        1.3478628104
 H          6.7818889580       -0.9569048922        1.1856148264
 H          5.8579968765       -1.5488599458        2.5796569186
 O          3.6346034269       -0.7408115105        1.9385337406
 C          2.4440964506       -0.0744037767        1.7120130120
 O          1.5583089166       -0.3183231403        2.5573210003
 H         -1.4009838702        0.2920263265        0.8401886912
 C         -1.0938543488        0.2553489560       -0.1953036217
 C          0.1284515727        0.7879953328       -0.5776126107
 C          0.5060082253        0.7076569629       -1.9142042769
 C         -0.3285790198        0.1106124809       -2.8409081024
 C         -1.5595692159       -0.3949101132       -2.4614764593
 C         -1.9428732216       -0.3247295650       -1.1274535845
 N         -3.1777971777       -0.8419692381       -0.7046962457
 S         -4.0039347181       -0.0212276486        0.5185556695
 O         -3.9014669270        1.4056870764        0.3118648553
 O         -3.5559806978       -0.5148825252        1.7967718042
 C         -5.6720656293       -0.5713154495        0.2106138816
 C         -6.5111673832        0.2147248973       -0.5565902089
 C         -7.7963589151       -0.2337313542       -0.8178975363
 C         -8.2172254710       -1.4548920446       -0.3130498860
 C         -7.3638369238       -2.2323230860        0.4559695270
 C         -6.0777683022       -1.7896493142        0.7218662893
 H         -5.3825728997       -2.3537436250        1.3217970133
 H         -7.6955489091       -3.1795541687        0.8495436008
 H         -9.2178432806       -1.8016251228       -0.5173656806
 H         -8.4631835533        0.3697935883       -1.4123161660
 H         -6.1432744402        1.1608341957       -0.9198828454
 H         -3.7870448642       -1.0867684232       -1.4733154041
 H         -2.2164148422       -0.8461178743       -3.1897798071
 H         -0.0235958714        0.0519560042       -3.8749261347
 H          1.4585858825        1.1154294359       -2.2151053683
 C          0.9968779742        1.4705004877        0.4527769646
 H          0.4939945568        1.3626459166        1.4241998607
 C          1.1050971260        2.9511880918        0.1365416020
 C         -0.1037623168        3.8145283688        0.3306172318
 C          1.0695471202        3.9468773147        1.2540430650
 H          1.6884400158        4.8283859684        1.1787187186
 H          0.9713919754        3.5661959292        2.2607505821
 H         -1.0018770911        3.3432123285        0.7043963138
 H         -0.2897945203        4.6057458692       -0.3795002597
 H          1.7490955548        3.1655598634       -0.7058286860
 O          3.4079452497        1.7485191870       -1.2749552453
