  62
        -98.93695738
 C          1.2833125488        1.4781181303        0.4780502974
 C          1.6295074249        0.4160204192        1.3475922270
 C          2.9201285247       -0.2300297776        1.0918956040
 C          3.7009621691        0.2151070547        0.0904622062
 C          5.0734144530       -0.2959331854       -0.2561780291
 C          5.0740276556       -1.5246964903       -1.1749424625
 C          4.6185398388       -2.8262173581       -0.5143793771
 H          4.8658345453       -3.6393600218       -1.1997001694
 H          5.1873953581       -2.9877887412        0.4019199581
 C          3.1159883627       -2.8818892262       -0.2059677357
 H          2.5900328048       -2.1150906649       -0.7802256368
 H          2.7061839008       -3.8420485022       -0.5281740657
 C          2.7556975172       -2.7174762011        1.2705164075
 H          3.1343187285       -3.5708092201        1.8384514635
 H          1.6642699553       -2.7203631946        1.3417472471
 C          3.2831042695       -1.4280978434        1.9150390876
 H          2.8128820462       -1.3170923044        2.8952981656
 H          4.3631903308       -1.4902492202        2.0490937371
 H          4.4393622269       -1.3155399237       -2.0392558196
 H          6.0957779409       -1.6621830631       -1.5364798633
 H          5.5855834909        0.5189324509       -0.7725518012
 H          5.6188218145       -0.5255519223        0.6596647826
 O          3.3284755573        1.2320411334       -0.7303999613
 C          2.0906441599        1.8513335791       -0.5967900961
 O          1.8474441019        2.6964996433       -1.4754838940
 O          0.8936506304        0.0310912722        2.2972881833
 C         -0.0673484379        2.1571469313        0.6654213118
 C         -0.9061490817        1.8683407426       -0.5575511683
 C         -1.5195683634        2.7636956959       -1.4230362214
 C         -2.2728258541        2.3036397312       -2.4927420230
 C         -2.4582692080        0.9537049898       -2.7185111342
 C         -1.8412093040        0.0436931105       -1.8663970913
 C         -1.0723125714        0.5089033966       -0.8159010088
 H         -0.5697918094       -0.2098696259       -0.1879660977
 N         -1.9866835275       -1.3393585544       -2.0419620513
 S         -1.9703787757       -2.3520687314       -0.7099003389
 O         -0.6219980193       -2.5504287398       -0.2446174876
 O         -2.6573724726       -3.5423709714       -1.1681504780
 C         -2.9668134979       -1.5255493969        0.5187196573
 C         -2.4046992283       -1.0288871267        1.6767999591
 C         -3.2184439002       -0.3601732505        2.5789961173
 C         -4.5689863783       -0.2022007416        2.3122411229
 C         -5.1205009301       -0.7169368696        1.1485184662
 C         -4.3132427407       -1.3831309500        0.2420801537
 H         -4.7063170714       -1.8068331233       -0.6677844150
 H         -6.1724287068       -0.5977887841        0.9450454356
 H         -5.1941908198        0.3234136358        3.0166076169
 H         -2.7835649058        0.0383939189        3.4818596477
 H         -1.3481038480       -1.1529948929        1.8613520977
 H         -2.6688932975       -1.6191506104       -2.7303990985
 H         -3.0561642430        0.6051404084       -3.5462723442
 H         -2.7321631942        3.0191158684       -3.1580025101
 H         -1.4086291681        3.8251214243       -1.2988230775
 H         -0.5389435788        1.5925998634        1.4886649556
 C          0.1341227000        3.5634699540        1.2046917970
 C          0.3649015476        4.7980725714        0.3913517625
 C         -0.9004338663        4.6488554536        1.1841975504
 H         -1.0103538381        5.2528407822        2.0728632776
 H         -1.8284483624        4.4655210675        0.6684147743
 H          1.1104254000        5.4946552544        0.7477946314
 H          0.3526425607        4.7094058572       -0.6820727375
 H          0.7217294558        3.5008462871        2.1189115899
