  62
        -98.93942892
 C          2.5684010232        0.9085837145       -0.2832830515
 C          2.6778708228       -0.4554052256        0.0791406421
 C          3.9816291288       -0.8697160091        0.6178192358
 C          4.9584372879        0.0447045299        0.7595830725
 C          6.3469991024       -0.2520602735        1.2456416468
 C          7.2860030680       -0.5845001158        0.0775091432
 C          6.7231560761       -1.6246856801       -0.8909682028
 H          7.4827723325       -1.8012345313       -1.6555905946
 H          5.8498850054       -1.2054441253       -1.3958757211
 C          6.3371291086       -2.9582566116       -0.2359943067
 H          6.8203990410       -3.0464911612        0.7376735669
 H          6.7102088432       -3.7744841977       -0.8581629439
 C          4.8311025601       -3.1737900914       -0.0750987964
 H          4.6638393514       -4.2209351826        0.1908408332
 H          4.3313186765       -2.9949936053       -1.0303872570
 C          4.1449090343       -2.3152340867        0.9949956884
 H          4.6806767523       -2.4091060402        1.9417793039
 H          3.1313203744       -2.7028402631        1.1341190365
 H          8.2332184826       -0.9403730536        0.4868490373
 H          7.4807484411        0.3335772362       -0.4816253703
 H          6.3107082911       -1.0850448123        1.9450241067
 H          6.7254157494        0.6301273065        1.7648256593
 O          4.8043307729        1.3525300555        0.4279435118
 C          3.6127862653        1.8153410569       -0.1054156396
 O          3.6056480466        3.0348818580       -0.3708287070
 O          1.7399944284       -1.2856949143       -0.0426874600
 C          1.2667489943        1.4351557018       -0.8612234910
 C          0.1494295016        1.2225611035        0.1319591371
 C          0.3078037034        1.7159133554        1.4246829736
 C         -0.6836236653        1.5493135820        2.3716793975
 C         -1.8550535934        0.8840397907        2.0538037844
 C         -2.0268117827        0.3944926401        0.7670336427
 C         -1.0327472611        0.5760406687       -0.1885068502
 H         -1.1822216976        0.1905248066       -1.1849828056
 N         -3.2039149389       -0.3019584136        0.4376564950
 S         -4.6711046464        0.3438845021        0.9694207259
 O         -4.7313216011        1.7557981340        0.6612318305
 O         -4.8543972083       -0.0051135807        2.3557249554
 C         -5.8232972031       -0.5651337606       -0.0413729270
 C         -6.2259449176       -1.8203907557        0.3732485657
 C         -7.0997200253       -2.5407751271       -0.4254722286
 C         -7.5527280979       -1.9978339361       -1.6187203789
 C         -7.1405835598       -0.7362319655       -2.0209676935
 C         -6.2661233791       -0.0105862008       -1.2273580021
 H         -5.9278057876        0.9774050522       -1.4960259146
 H         -7.4971407903       -0.3157177233       -2.9474625963
 H         -8.2336444261       -2.5602066059       -2.2379363782
 H         -7.4242311902       -3.5209641515       -0.1153696143
 H         -5.8545107821       -2.1979628832        1.3115301450
 H         -3.2458758606       -0.5307761593       -0.5463126268
 H         -2.6363295079        0.7453293844        2.7835310096
 H         -0.5448236617        1.9383023525        3.3696163464
 H          1.2244332414        2.2331530569        1.6761981909
 H          1.4057441921        2.5191271535       -0.9846984751
 C          1.0111665231        0.8185019971       -2.2203489759
 C          0.1814283036        1.5465982161       -3.2337587314
 C          1.6632166004        1.4275708790       -3.4236426379
 H          2.0342157325        0.7718140270       -4.1970072394
 H          2.2740612718        2.3046200884       -3.2654568985
 H         -0.4631799999        0.9730896363       -3.8828509230
 H         -0.2179242183        2.5096774345       -2.9533219621
 H          0.9452148807       -0.2627712819       -2.1818971647
