  62
        -98.94637748
 C          1.7879234199        0.7317185418        0.2458460744
 C          3.0862679349        0.9816075838        0.7511239868
 C          4.0084113814       -0.1592682164        0.7321102888
 C          3.5841539276       -1.3531788491        0.2789401430
 C          4.3991221674       -2.6166046925        0.2190580064
 C          5.2817641141       -2.7309656707       -1.0314075428
 C          6.5025138975       -1.8102456427       -1.0528569222
 H          7.0655075670       -1.9329504821       -0.1270636921
 H          7.1432200460       -2.1468071753       -1.8703832590
 C          6.1727800072       -0.3259033756       -1.2642215108
 H          6.8477289041        0.0942019968       -2.0133743767
 H          5.1586493969       -0.2300128449       -1.6591816111
 C          6.2977570611        0.5365008128       -0.0081500638
 H          6.0054292951        1.5581957252       -0.2639912881
 H          7.3392607405        0.5570510252        0.3203711010
 C          5.4244017978        0.0732518515        1.1651859220
 H          5.8407937820       -0.8301140970        1.6102538096
 H          5.4158515424        0.8641719031        1.9192571167
 H          5.6321117339       -3.7640816508       -1.0893822044
 H          4.6656383642       -2.5392386233       -1.9129630144
 H          5.0197434855       -2.6957020546        1.1120082424
 H          3.6878402411       -3.4451931277        0.2146687732
 O          2.3180965407       -1.5588945238       -0.1722260131
 C          1.3969879612       -0.5223440295       -0.2209677182
 O          0.2869204610       -0.8452582403       -0.6834160705
 H         -1.8728441802        1.9213673582       -0.5951710441
 C         -1.7288198425        1.5914303508        0.4194943863
 C         -0.4588862355        1.5034506682        0.9665284264
 C         -0.3295604295        1.0708877614        2.2849423386
 C         -1.4398452589        0.7229063086        3.0282283673
 C         -2.7053706692        0.7909797745        2.4704035842
 C         -2.8467660431        1.2276063047        1.1599344063
 N         -4.1214158527        1.3343520916        0.5708570805
 S         -4.4500295091        0.5087182815       -0.8488647857
 O         -3.5614571507        0.9489958905       -1.8916790016
 O         -5.8620882486        0.7265752304       -1.0782491291
 C         -4.1751726610       -1.2069662955       -0.4450739272
 C         -2.8858053471       -1.6966696353       -0.3896765961
 C         -2.6934589777       -3.0158134864       -0.0070317451
 C         -3.7794863158       -3.8157350550        0.3113995614
 C         -5.0682551387       -3.3064315717        0.2504144360
 C         -5.2693736845       -1.9889186473       -0.1259282039
 H         -6.2524657178       -1.5511006578       -0.1912143668
 H         -5.9126613095       -3.9300667135        0.4963001288
 H         -3.6196137818       -4.8407772994        0.6071216194
 H         -1.6861293480       -3.3988512398        0.0374307123
 H         -2.0459058115       -1.0682172941       -0.6410718832
 H         -4.8808414189        1.1850541689        1.2210448911
 H         -3.5751038437        0.5132584451        3.0464623338
 H         -1.3212324736        0.3892783277        4.0480263696
 H          0.6600719245        1.0105653826        2.7174032414
 C          0.7858351606        1.8704337148        0.1985186050
 H          1.2735790496        2.7100720051        0.7162792686
 C          0.5195472400        2.2762048130       -1.2357778711
 C          0.1142273836        3.6822439831       -1.5582125846
 C          1.4838635644        3.1948130504       -1.9217427248
 H          1.7118959823        3.0202808473       -2.9626738710
 H          2.3243144477        3.5514191793       -1.3440505013
 H         -0.6037684870        3.8404109305       -2.3490636148
 H          0.0249181524        4.3772709625       -0.7369674308
 H          0.0880503089        1.4755709847       -1.8274884874
 O          3.4523705847        2.0995603310        1.2028328868
