  62
        -98.93831417
 C         -1.9986222414       -0.9212053319        0.2920841064
 C         -2.3030670233        0.2247052423       -0.4783536159
 C         -3.5697948797        0.9126794248       -0.1612647241
 C         -4.3366104719        0.4558783441        0.8429413091
 C         -5.6681699243        0.9849493726        1.2986100778
 C         -6.8183576636        0.2269380467        0.6143456101
 C         -7.2431894779        0.7893626780       -0.7416102555
 H         -7.9626847169        0.0895974820       -1.1729718279
 H         -7.7609363827        1.7388756070       -0.5899072249
 C         -6.1067969609        1.0069089411       -1.7440038748
 H         -5.4267700120        0.1534869260       -1.7199496701
 H         -6.5444035527        1.0432581040       -2.7435472855
 C         -5.3250177230        2.3057999528       -1.4969720967
 H         -5.8768589029        2.9250561842       -0.7900066534
 H         -5.2680591252        2.8756761666       -2.4268768025
 C         -3.8823840733        2.1196470203       -1.0041254550
 H         -3.2131326900        2.0370404620       -1.8662814890
 H         -3.5734248965        3.0167686569       -0.4566307729
 H         -6.5110511292       -0.8158819928        0.5011529000
 H         -7.6884122716        0.2408650383        1.2738747819
 H         -5.7226962397        0.8022091250        2.3739266455
 H         -5.7404750840        2.0539098656        1.1216985619
 O         -3.9973768040       -0.6380957079        1.5776610242
 C         -2.8439598873       -1.3507083734        1.3211092227
 O         -2.6784652413       -2.3392195099        2.0630449964
 O         -1.5718559092        0.6764697205       -1.4019288145
 C         -0.7495511500       -1.7662405738        0.0877285531
 C          0.4542425782       -1.1220043683        0.7333579333
 C          1.1072612452       -1.7371193149        1.7949639363
 C          2.2108133693       -1.1438730728        2.3834912311
 C          2.6856365474        0.0716018016        1.9250880356
 C          2.0400236815        0.6926783439        0.8631287405
 C          0.9392511994        0.0924459150        0.2691148032
 H          0.4343721548        0.5853580274       -0.5482132316
 N          2.5147453104        1.9260770068        0.3864108699
 S          4.1629272436        2.0851132947        0.1544120859
 O          4.8003724874        2.3970271843        1.4101666721
 O          4.3111362238        3.0761082407       -0.8883962671
 C          4.7126865138        0.4858464673       -0.4162178821
 C          5.6640007398       -0.2103519050        0.3008935625
 C          6.0564504472       -1.4624833040       -0.1447470354
 C          5.4900943593       -1.9952941040       -1.2919989602
 C          4.5373487753       -1.2818643076       -2.0032110456
 C          4.1424212132       -0.0291204805       -1.5636728324
 H          3.4053675748        0.5499015126       -2.0969015622
 H          4.0978664057       -1.6977277603       -2.8955775276
 H          5.7918679868       -2.9720521178       -1.6356956531
 H          6.7982562734       -2.0185154569        0.4054857062
 H          6.0747470914        0.2401214384        1.1897997162
 H          1.9896024900        2.2875634286       -0.3962197045
 H          3.5353615132        0.5547701777        2.3797755900
 H          2.7051226558       -1.6311035417        3.2099210377
 H          0.7332390195       -2.6790805183        2.1687873208
 H         -0.9452364465       -2.7085669323        0.6161490617
 C         -0.4798531950       -2.0837407104       -1.3710557186
 C          0.3914596880       -3.2537697472       -1.7102300728
 C         -1.0825083499       -3.3147296700       -1.9750346643
 H         -1.4285907776       -3.2706029139       -2.9968958889
 H         -1.6914707928       -3.9382720011       -1.3363030067
 H          1.0601036693       -3.1697895394       -2.5527809644
 H          0.7840640690       -3.8387500125       -0.8925836059
 H         -0.4138731538       -1.2053330466       -1.9986850056
