  62
        -98.94306244
 C         -2.6893390582       -1.2025603906        0.1119210624
 C         -2.6965868463       -0.1847691169       -0.8720036442
 C         -3.8928373205        0.6662826755       -0.8938974315
 C         -4.9022425072        0.4259033702       -0.0374179834
 C         -6.1936621947        1.1935534019        0.0466201303
 C         -6.1055747947        2.4685287117        0.8967894280
 C         -5.3268470863        3.6216081380        0.2622216110
 H         -5.7126948494        3.8109427122       -0.7399157021
 H         -5.5279100677        4.5113800696        0.8621768870
 C         -3.8087259687        3.4021562891        0.1989646556
 H         -3.5271144807        2.5998223204        0.8848815003
 H         -3.2956314125        4.3051858196        0.5370851488
 C         -3.2723845648        3.0715269305       -1.1939462112
 H         -2.1965275014        2.8957170851       -1.1134636691
 H         -3.4267845921        3.9248544775       -1.8579877696
 C         -3.9071235513        1.8312814632       -1.8366302397
 H         -4.9249424455        2.0514907545       -2.1576836934
 H         -3.3136893004        1.5571274173       -2.7121709738
 H         -7.1274265588        2.8072329488        1.0827053975
 H         -5.6593795826        2.2147871716        1.8612142636
 H         -6.5363342768        1.4465102657       -0.9570110973
 H         -6.9242684738        0.5238216014        0.5054045489
 O         -4.8695621865       -0.5873593167        0.8696911882
 C         -3.7574233253       -1.4055655457        0.9848526605
 O         -3.8401711645       -2.2642602020        1.8870733845
 O         -1.7580124379        0.0040614240       -1.6882347253
 C         -1.4833527881       -2.1146032085        0.2420608634
 C         -0.2379456120       -1.2928368384        0.4725556359
 C         -0.2517069517       -0.3169011794        1.4660660876
 C          0.8651484235        0.4566720084        1.7136076823
 C          2.0245788598        0.2741875857        0.9794359145
 C          2.0565907302       -0.7073858830       -0.0001448618
 C          0.9312225104       -1.4866283700       -0.2446635925
 H          0.9732943170       -2.2431242296       -1.0127622317
 N          3.2233185193       -0.8970474154       -0.7549224042
 S          4.7159148516       -0.9075466025        0.0039661369
 O          5.5788863062       -1.6604820180       -0.8798436136
 O          4.6175555477       -1.3852613357        1.3635393191
 C          5.2211531059        0.7998395661       -0.0107734440
 C          5.6252568639        1.4078727922        1.1614873964
 C          6.0302380375        2.7331768740        1.1244569486
 C          6.0254640424        3.4227188628       -0.0782517721
 C          5.6188761159        2.7968686659       -1.2474021072
 C          5.2137895619        1.4721291806       -1.2171987042
 H          4.8931827947        0.9510537835       -2.1037992400
 H          5.6158101205        3.3365523962       -2.1807597865
 H          6.3406398658        4.4539056979       -0.1049370092
 H          6.3474137583        3.2212176271        2.0320805302
 H          5.6081592833        0.8343694950        2.0747675558
 H          3.1542333043       -1.6222702915       -1.4533408231
 H          2.8978771610        0.8777160663        1.1650128287
 H          0.8340963157        1.2131689198        2.4832850244
 H         -1.1573962879       -0.1715731863        2.0399837624
 H         -1.6573837764       -2.7260022431        1.1398600086
 C         -1.3978866773       -3.0315369260       -0.9605892531
 C         -0.7625193425       -4.3833601779       -0.8383845254
 C         -2.2486638417       -4.2640294233       -0.9899904741
 H         -2.6980655703       -4.5589450470       -1.9263322445
 H         -2.8705527705       -4.4565391117       -0.1277553412
 H         -0.1934706819       -4.7654823269       -1.6729434731
 H         -0.3726312395       -4.6679270075        0.1274995295
 H         -1.2748056249       -2.4875525620       -1.8903408883
