  62
        -98.93724316
 C         -2.2563281802       -0.5852003002       -0.0060818996
 C         -3.1966699402       -0.5311879198        1.0559126704
 C         -4.2321672401        0.5123817003        0.9834149600
 C         -4.2245248000        1.3618010799       -0.0580056303
 C         -5.2139972099        2.4524167599       -0.3615634706
 C         -6.3202155900        1.9355088797       -1.2973112605
 C         -7.5082595300        1.2821864501       -0.5921221703
 H         -8.0893380700        2.0523481203       -0.0805738005
 H         -8.1470066501        0.8498900899       -1.3658354301
 C         -7.1502983401        0.1883587703        0.4174354601
 H         -8.0350062402       -0.4344485295        0.5635485103
 H         -6.3693998202       -0.4526622099        0.0040542103
 C         -6.7042648901        0.7449380808        1.7777997699
 H         -7.2791323101        0.2630772711        2.5713276701
 H         -6.9440313500        1.8070230008        1.8241315596
 C         -5.2212363501        0.5345138507        2.1166989200
 H         -5.0949973702       -0.4331937791        2.6121590103
 H         -4.9079106700        1.2965303009        2.8380175198
 H         -5.8661470900        1.2230775095       -1.9910483402
 H         -6.6971159699        2.7718400096       -1.8895983507
 H         -5.6316332499        2.8605516503        0.5539304792
 H         -4.6611193699        3.2395217397       -0.8785209009
 O         -3.2927139300        1.2918486895       -1.0460974302
 C         -2.2994847101        0.3275951595       -1.0591273799
 O         -1.5457055101        0.4115724191       -2.0512746899
 O         -3.1800136703       -1.3394495195        2.0224539706
 C         -1.2272600403       -1.7010610603        0.0572921807
 C          0.1259613798       -1.2199384202        0.5244619706
 C          0.6864984697       -1.7086434499        1.6987839508
 C          1.9464374797       -1.3021654099        2.1019749906
 C          2.6730221398       -0.4025759002        1.3427110103
 C          2.1196558199        0.0960034695        0.1707403202
 C          0.8570085298       -0.3135165205       -0.2306733897
 H          0.4312598699        0.0816142992       -1.1414928198
 N          2.8542357400        1.0194211192       -0.6053240901
 S          4.2703076699        0.4217237188       -1.2947400999
 O          4.5547305300        1.2950553484       -2.4122708902
 O          4.1552533598       -0.9878270713       -1.5946556195
 C          5.5005231099        0.6723699291       -0.0324635300
 C          6.1575690698       -0.4140837807        0.5111827404
 C          7.1160892598       -0.1963477805        1.4886898303
 C          7.3989940599        1.0965809696        1.9020530199
 C          6.7316227800        2.1771280395        1.3440839995
 C          5.7730465200        1.9666430492        0.3657244896
 H          5.2346266001        2.7765147191       -0.0978361607
 H          6.9550292401        3.1809224296        1.6678401192
 H          8.1445154600        1.2633725598        2.6634709598
 H          7.6363031298       -1.0347454704        1.9232841106
 H          5.8996553897       -1.4006548008        0.1610857907
 H          2.2908965500        1.4445635790       -1.3296518503
 H          3.6538219598       -0.0803126602        1.6521460702
 H          2.3677612697       -1.6901008196        3.0166419708
 H          0.1224088996       -2.4067508597        2.3000453310
 H         -1.6118598703       -2.3958843600        0.8160749910
 C         -1.0880068303       -2.4542823807       -1.2526443590
 C         -0.5317576405       -3.8451182108       -1.2349909086
 C         -1.9840017504       -3.6218249907       -1.5307246986
 H         -2.3365037104       -3.7706920910       -2.5403551886
 H         -2.7052528505       -3.8895247104       -0.7723061985
 H          0.1199064395       -4.1478754411       -2.0402873384
 H         -0.2687872705       -4.2654027705       -0.2761657084
 H         -0.8258448203       -1.8193452810       -2.0894447092
