  62
        -98.93239032
 C          2.2516131748        0.0162154187        0.3012622973
 C          3.2934809191        0.6459689677       -0.4211873172
 C          4.4897919663       -0.1727335946       -0.6922790030
 C          4.5288160531       -1.4526046927       -0.2877000745
 C          5.6216007754       -2.4707237645       -0.4965139898
 C          7.0690086879       -2.0108173700       -0.2686345079
 C          7.2477842761       -0.9295919161        0.8071994768
 H          6.3278829707       -0.8187236015        1.3839633343
 H          8.0298347453       -1.2455726450        1.5002286977
 C          7.6549713148        0.4277235020        0.2282481610
 H          8.4133437501        0.2662295936       -0.5409565303
 H          8.1150387346        1.0230967229        1.0206124995
 C          6.5159467273        1.2601098298       -0.3593389945
 H          6.9541282944        2.1380506662       -0.8400182421
 H          5.8703440964        1.6240483460        0.4445347765
 C          5.6236056373        0.5335538092       -1.3788889749
 H          5.1649001064        1.2884734862       -2.0227608992
 H          6.2039762354       -0.1457486298       -1.9980761352
 H          7.6411133729       -2.8976683511        0.0089510374
 H          7.4878137882       -1.6487275757       -1.2065521093
 H          5.3833427641       -3.2858503571        0.1908869457
 H          5.5276547722       -2.8676000080       -1.5114500825
 O          3.4913220836       -2.0306118721        0.3821450461
 C          2.3512148185       -1.3190213186        0.7025399705
 O          1.5061444620       -1.9769625117        1.3443909974
 O          3.2536205502        1.8329584261       -0.8396798974
 C          0.9650304443        0.7176823763        0.7042587169
 C         -0.0395124437        0.7683862706       -0.4223659611
 C          0.2324282636        1.4298879671       -1.6155477631
 C         -0.7245883958        1.4955562348       -2.6113028921
 C         -1.9734929420        0.9278164247       -2.4301233839
 C         -2.2523349089        0.2601583080       -1.2436915081
 C         -1.2819532598        0.1751217223       -0.2552042169
 H         -1.5100306631       -0.3583472399        0.6565996762
 N         -3.5039435187       -0.3394761202       -1.0301822594
 S         -4.1464020519       -0.2827811659        0.5313123581
 O         -3.8845252823        1.0080610818        1.1263293506
 O         -3.6821200397       -1.4311934194        1.2690975575
 C         -5.8854997504       -0.4564616085        0.1771823790
 C         -6.3984609734       -1.7206153134       -0.0447388930
 C         -7.7437353215       -1.8527920273       -0.3502942857
 C         -8.5486708955       -0.7258535995       -0.4294708672
 C         -8.0198269811        0.5359214847       -0.2028125468
 C         -6.6749715759        0.6755803959        0.1021213027
 H         -6.2214117847        1.6345916467        0.2945207410
 H         -8.6485516343        1.4096833622       -0.2617977881
 H         -9.5954702686       -0.8321968067       -0.6663284309
 H         -8.1589856442       -2.8323300566       -0.5241337541
 H         -5.7367930755       -2.5672819113        0.0373516219
 H         -4.1876788897       -0.0843360009       -1.7297557665
 H         -2.7251008135        0.9951833701       -3.2021124847
 H         -0.5009037464        2.0092253439       -3.5341816113
 H          1.1997049242        1.8881354720       -1.7517360641
 H          0.5283989696        0.0981503312        1.5005117321
 C          1.1865365088        2.1142651641        1.2566158636
 C          0.0840798574        2.7578591646        2.0404959230
 C          1.3342042067        2.3069621540        2.7339773964
 H          2.0253264606        3.0563879293        3.0898176961
 H          1.2805260802        1.4285087267        3.3613258228
 H         -0.0817504167        3.8174521892        1.9194776609
 H         -0.8224308449        2.1887747074        2.1915897668
 H          1.7787143401        2.7443437278        0.6063572145
