  62
        -98.94375455
 C         -1.8990646229       -1.2535960795        0.1236960299
 C         -2.4251088110       -0.4256309195        1.1468983058
 C         -3.7910434208        0.0710779499        0.9431006904
 C         -4.4473176026       -0.2588063319       -0.1844544195
 C         -5.8280440920        0.2083727954       -0.5416328683
 C         -5.7846691342        1.5075787873       -1.3577014222
 C         -4.8939017564        2.5898433464       -0.7477435160
 H         -3.8541070997        2.2553825171       -0.7785838617
 H         -4.9656122591        3.4703680140       -1.3899545756
 C         -5.2599239863        2.9763841857        0.6921706622
 H         -6.2753368955        2.6482740999        0.9172780995
 H         -5.2451929360        4.0651346241        0.7763841668
 C         -4.3046342452        2.4347816938        1.7573661427
 H         -3.2751548033        2.6797253569        1.4831348285
 H         -4.5220182089        2.9454787970        2.6993707526
 C         -4.3879750702        0.9265281662        2.0250705040
 H         -3.8072031295        0.7173085833        2.9282086564
 H         -5.4259112364        0.6435536393        2.2116754760
 H         -5.4073002514        1.2772601764       -2.3566855349
 H         -6.8034070674        1.8863677759       -1.4582336594
 H         -6.4016577563        0.3591477792        0.3708668496
 H         -6.3091871407       -0.5684168393       -1.1383255300
 O         -3.9009312500       -1.0281840548       -1.1578596851
 C         -2.6117179763       -1.5316327727       -1.0434240643
 O         -2.2420543381       -2.1984786101       -2.0268495566
 O         -1.7806450626       -0.1207608847        2.1873385817
 C         -0.4890144659       -1.7910141886        0.3072275985
 C          0.4486153028       -0.9939942671       -0.5650999562
 C          0.8813889832       -1.4250782587       -1.8124499416
 C          1.7298798638       -0.6351570548       -2.5693960049
 C          2.1745642524        0.5859694237       -2.0954526415
 C          1.7480115487        1.0234676069       -0.8482036918
 C          0.8894797844        0.2374563222       -0.0959283289
 H          0.5481251117        0.5824512168        0.8717768199
 N          2.2481005479        2.2414901128       -0.3361226316
 S          3.9155820536        2.2519146034       -0.1243135975
 O          4.1736487712        3.2199518034        0.9179793021
 O          4.5523844909        2.5017656930       -1.3923594982
 C          4.2835770020        0.5968226343        0.4310357799
 C          4.8081567100       -0.3223256027       -0.4547625506
 C          4.9776432228       -1.6325390969       -0.0371879459
 C          4.6170561418       -1.9998240308        1.2498238348
 C          4.0982471477       -1.0629003351        2.1305828302
 C          3.9240831894        0.2478938156        1.7177763157
 H          3.5236843285        1.0033363236        2.3753483870
 H          3.8200374196       -1.3504221979        3.1320870756
 H          4.7409009871       -3.0225529222        1.5698715345
 H          5.3814579457       -2.3636693746       -0.7186192189
 H          5.0728792085        0.0039238374       -1.4468855154
 H          1.7957114229        2.5187087139        0.5240313579
 H          2.8506355009        1.2044585014       -2.6636838613
 H          2.0533884282       -0.9780719770       -3.5402852500
 H          0.5365190019       -2.3707081498       -2.1962580419
 H         -0.2355699974       -1.5686930833        1.3529543687
 C         -0.3849745857       -3.2856864908        0.0943932064
 C          0.8625343207       -3.9874621682        0.5396310589
 C         -0.4214361573       -4.1967021663        1.2830752839
 H         -0.9258694690       -5.1464523487        1.1866791594
 H         -0.5285465289       -3.7443761447        2.2581824686
 H          1.2437496563       -4.7951749620       -0.0655376111
 H          1.6280845946       -3.3851892045        1.0057100301
 H         -0.8696004283       -3.6304189349       -0.8099118460
