  62
        -98.94705097
 C         -1.5188700381       -1.0631167877        0.0877708400
 C         -2.5395970649       -0.6159620260        0.9570044941
 C         -3.1206651050        0.6954858948        0.6450099728
 C         -2.6300920218        1.4020038338       -0.3903966757
 C         -3.1551799898        2.7334535999       -0.8422351224
 C         -4.2496298196        2.5708751997       -1.9064727163
 C         -5.3364019671        1.5657755388       -1.5247060351
 H         -6.0686252273        1.5552562695       -2.3347711117
 H         -4.8957547120        0.5675395985       -1.4749238521
 C         -6.0457395546        1.8720573543       -0.1983538484
 H         -5.8747620854        2.9121332459        0.0815936071
 H         -7.1212692500        1.7461176995       -0.3388290570
 C         -5.6395318466        0.9626669081        0.9627178141
 H         -5.7200935185       -0.0827852125        0.6547160652
 H         -6.3475224910        1.1187710329        1.7809863103
 C         -4.2317627913        1.1898251896        1.5285846540
 H         -4.0942561298        2.2474014442        1.7648875604
 H         -4.1508368557        0.6185772314        2.4584558437
 H         -4.7013575833        3.5478632682       -2.0875390062
 H         -3.7817191961        2.2348913847       -2.8345711555
 H         -3.5459889034        3.2735699315        0.0182265958
 H         -2.3238494694        3.3009272564       -1.2645996173
 O         -1.6218165238        0.9574066024       -1.1803423796
 C         -1.0313213695       -0.2740043619       -0.9552306644
 O         -0.1078606482       -0.5552706684       -1.7427166682
 H          0.3045303598       -0.5391460748        1.8245976372
 C          1.0417693217       -1.1584104220        1.3275364528
 C          0.6201214840       -2.2122615695        0.5253497711
 C          1.5854759447       -2.9929651845       -0.0970746734
 C          2.9309799987       -2.6987896535        0.0466427266
 C          3.3402082839       -1.6097116686        0.7943636795
 C          2.3825500451       -0.8397646951        1.4397051985
 N          2.8008483982        0.3382576809        2.1294422823
 S          2.5704154458        1.6868836799        1.1323649774
 O          3.0994733195        2.8151213775        1.8708486095
 O          1.1848991235        1.8146907788        0.7298331682
 C          3.6168051016        1.3071168894       -0.2510303112
 C          4.9618633528        1.6064852442       -0.1490465420
 C          5.8043783594        1.2655558340       -1.1942861562
 C          5.2892540449        0.6283129395       -2.3135837401
 C          3.9372563736        0.3333413967       -2.3971910110
 C          3.0856766074        0.6728865935       -1.3565993471
 H          2.0300195145        0.4469961333       -1.3922899502
 H          3.5327233837       -0.1660585381       -3.2628738505
 H          5.9448528397        0.3581994186       -3.1264348487
 H          6.8563101689        1.4932736362       -1.1323389917
 H          5.3113775861        2.1021548837        0.7416500187
 H          2.2755363613        0.4948680157        2.9806762548
 H          4.3809579256       -1.3442746561        0.8822926170
 H          3.6672920962       -3.3106418838       -0.4506994863
 H          1.2815548112       -3.8241627682       -0.7121243644
 C         -0.8637571104       -2.4093470564        0.3448919033
 H         -1.2911398249       -2.7697409074        1.2927183508
 C         -1.2150338648       -3.3883151228       -0.7558362654
 C         -1.2826098448       -4.8581366306       -0.4697812732
 C         -2.5420022375       -4.0826475406       -0.7095018016
 H         -3.0768382428       -4.2351832092       -1.6348805369
 H         -3.1825560774       -3.8686081906        0.1337577964
 H         -0.9553860214       -5.5475116167       -1.2332220654
 H         -1.0723867498       -5.1814423550        0.5383916480
 H         -0.8511337372       -3.0681525714       -1.7258612908
 O         -2.9396030163       -1.2804935703        1.9535084760
