  62
        -98.94672135
 C         -1.9935706745       -1.4539331834       -0.0894368272
 C         -1.7147259275       -0.2185371965       -0.7195661090
 C         -2.8642399169        0.6768309564       -0.9105343849
 C         -4.0876636010        0.2696222327       -0.5260023932
 C         -5.3337902154        1.1013967585       -0.6128701393
 C         -5.5609994062        1.8977783973        0.6800285145
 C         -4.3255555232        2.6565989871        1.1649544543
 H         -4.6134542862        3.2024246277        2.0660527265
 H         -3.5572264041        1.9370576484        1.4571272063
 C         -3.7377225412        3.6364032812        0.1398129142
 H         -4.4784388948        3.8555936801       -0.6300236832
 H         -3.5087370221        4.5763158654        0.6462759009
 C         -2.4437062979        3.1598947535       -0.5228769538
 H         -1.7354711564        2.8433611916        0.2475089109
 H         -2.0022953745        4.0086665170       -1.0523987211
 C         -2.5971715388        2.0173586147       -1.5350760966
 H         -3.3740075907        2.2685757530       -2.2599600084
 H         -1.6488761035        1.9134235975       -2.0709826715
 H         -6.3797558066        2.6000412698        0.5130516700
 H         -5.8654039738        1.2021883885        1.4655721777
 H         -5.2536156373        1.7790983433       -1.4605883633
 H         -6.1826536453        0.4343297532       -0.7721257944
 O         -4.3222124000       -0.9428436130        0.0389249865
 C         -3.2834921137       -1.8245636526        0.2900933343
 O         -3.6296475871       -2.8854495586        0.8478168874
 H          1.8622871531       -2.1276914934       -0.2772445709
 C          1.5274552670       -1.6851255655        0.6453495443
 C          0.1956221238       -1.7454295210        1.0223300565
 C         -0.1847252357       -1.1541606813        2.2255604044
 C          0.7408684838       -0.5098481558        3.0222629174
 C          2.0666777653       -0.4321608136        2.6308791786
 C          2.4580760191       -1.0221520985        1.4361553062
 N          3.8031052963       -0.9803758177        1.0221734898
 S          4.1968032053       -0.3245891214       -0.4685106780
 O          3.5508302157       -1.0667043427       -1.5186589077
 O          5.6439840949       -0.3161324773       -0.4892944983
 C          3.5994029070        1.3551161608       -0.3982808855
 C          4.4992955544        2.3570907699       -0.0872357761
 C          4.0431405025        3.6597433768        0.0276934571
 C          2.6970987056        3.9367113033       -0.1601242284
 C          1.8081139687        2.9187000396       -0.4664612068
 C          2.2564635240        1.6118528919       -0.5874963281
 H          1.5727508779        0.8125838456       -0.8262315807
 H          0.7593142364        3.1226647426       -0.6137046279
 H          2.3384471570        4.9499395514       -0.0685830215
 H          4.7348440593        4.4522974217        0.2641522010
 H          5.5367361219        2.0952521452        0.0455588591
 H          4.4290359140       -0.6030513836        1.7203496250
 H          2.7919674688        0.0769724744        3.2475372267
 H          0.4287841842       -0.0576823796        3.9515848362
 H         -1.2231342798       -1.2084644263        2.5248909697
 C         -0.8621699740       -2.4276616705        0.1891927364
 H         -1.2990432553       -3.2405472775        0.7875682268
 C         -0.3362682164       -3.0091474649       -1.1060146551
 C          0.3060066569       -4.3625737553       -1.1140037783
 C         -1.0504996994       -4.1725870088       -1.7221160652
 H         -1.1452549612       -4.2094941056       -2.7970727537
 H         -1.9088225998       -4.5627824144       -1.1942314839
 H          0.3706984816       -4.8908341982       -0.1746217635
 H          1.1467278492       -4.5281460187       -1.7710591363
 H          0.0598395689       -2.2558191288       -1.7780162529
 O         -0.5653321935        0.1246851985       -1.0990778232
