  62
        -98.94320418
 C         -1.8826209096       -1.1656639099        0.3306113417
 C         -2.4333697297       -0.1622348992        1.1696187508
 C         -3.8368678397        0.1877603205        0.9280815305
 C         -4.5274536096       -0.4543043805       -0.0313175789
 C         -5.9729554297       -0.2312933309       -0.3844906391
 C         -6.2072252298        0.9422593582       -1.3453298501
 C         -6.0253612899        2.3311814988       -0.7319514714
 H         -6.4301375200        3.0521374181       -1.4449737520
 H         -6.6197270999        2.4059478495        0.1791812286
 C         -4.5671250500        2.7038746392       -0.4292116017
 H         -3.8976663399        2.0374737288       -0.9784428011
 H         -4.3684469701        3.7178254489       -0.7839065026
 C         -4.1958998300        2.6635904805        1.0534307383
 H         -3.1336934800        2.9056460207        1.1473024881
 H         -4.7627455700        3.4247420009        1.5944351077
 C         -4.4337403998        1.3060837211        1.7277202495
 H         -5.5009333998        1.1414055211        1.8756941497
 H         -3.9418149398        1.3174246220        2.7035634595
 H         -5.5377188698        0.8320083375       -2.2014559500
 H         -7.2329740098        0.8626715878       -1.7125479701
 H         -6.5531218897       -0.0790438602        0.5260557908
 H         -6.3187562896       -1.1469365814       -0.8688712883
 O         -3.9731238395       -1.4275665711       -0.7979584581
 C         -2.6407620095       -1.7947558308       -0.6576496677
 O         -2.2858440294       -2.6832715015       -1.4545810570
 O         -1.7838171497        0.4069810717        2.0879703303
 C         -0.4202885595       -1.5233549595        0.5446615020
 C          0.4249845304       -0.8976492004       -0.5390683886
 C          0.5506386504       -1.4662845115       -1.8027066381
 C          1.3076242504       -0.8433512123       -2.7778099786
 C          1.9708205503        0.3412776180       -2.5096927197
 C          1.8515530902        0.9186869991       -1.2517351302
 C          1.0778403803        0.3004027299       -0.2792617196
 H          0.9784046602        0.7716697707        0.6877552000
 N          2.5189347001        2.1199405295       -0.9444148712
 S          3.4993363801        2.1445374808        0.4136578987
 O          2.6973691001        2.1503675117        1.6092789787
 O          4.3684949000        3.2842118407        0.2189439577
 C          4.4367732002        0.6320132108        0.2955026300
 C          5.5404522902        0.6089341801       -0.5348487799
 C          6.2313371104       -0.5803223699       -0.6996993989
 C          5.8019674305       -1.7234249194       -0.0426404279
 C          4.6932950905       -1.6837568788        0.7885041721
 C          4.0008795404       -0.4955880187        0.9612268710
 H          3.1372288304       -0.4211563082        1.6021982810
 H          4.3622404206       -2.5738316784        1.2995625229
 H          6.3351411606       -2.6514058095       -0.1757020971
 H          7.0975548604       -0.6135902904       -1.3406287689
 H          5.8450509901        1.5223205598       -1.0197561408
 H          3.0089182000        2.5244352988       -1.7301381016
 H          2.5679888302        0.8219029374       -3.2698401001
 H          1.3890125504       -1.2903362131       -3.7569013682
 H          0.0231180305       -2.3793861317       -2.0254944473
 H         -0.1500839096       -1.0416881587        1.4946790816
 C         -0.1864424494       -3.0140862994        0.6789503533
 C          1.0705471807       -3.4926680087        1.3387924737
 C         -0.2464661293       -3.6411735982        2.0381228539
 H         -0.6762240992       -4.6272521882        2.1309624947
 H         -0.4551251593       -2.9947540275        2.8785498833
 H          1.5510588108       -4.3780262590        0.9525600945
 H          1.7524968606       -2.7413558983        1.7071918430
 H         -0.5783395293       -3.5926354301       -0.1468215162
