  62
        -98.93112671
 C          2.4373747802        1.3255374598        0.3892608240
 C          2.4166235266        0.0942567451       -0.3067864994
 C          3.6346505627       -0.7395083722       -0.2099964498
 C          4.6802700226       -0.2979811219        0.5099105319
 C          6.0146615424       -0.9583910454        0.7482132376
 C          6.6918400919       -1.6033932817       -0.4708350520
 C          6.7093257861       -3.1319894560       -0.4181485519
 H          7.5330488872       -3.4937028712       -1.0376491180
 H          6.9141184545       -3.4418312711        0.6087565964
 C          5.4313079637       -3.8122355784       -0.9058025249
 H          5.5195039303       -4.8784254948       -0.6841620378
 H          5.3602153958       -3.7113868963       -1.9910348618
 C          4.1335505932       -3.2886772741       -0.2869076106
 H          4.2663397827       -3.1004879617        0.7778309002
 H          3.3797775600       -4.0734377742       -0.3794470032
 C          3.5844091917       -2.0320198657       -0.9785023922
 H          4.0825844812       -1.8889398174       -1.9420359804
 H          2.5233811457       -2.1735187630       -1.2074366407
 H          6.2116013990       -1.2611747235       -1.3863094831
 H          7.7258573879       -1.2557811144       -0.4997460681
 H          6.6522725258       -0.1687654856        1.1524504632
 H          5.8974648157       -1.6995795233        1.5427062478
 O          4.6445057289        0.8860507733        1.1874866952
 C          3.5361395792        1.7098170643        1.1611611636
 O          3.6469956044        2.7399919401        1.8555466758
 H         -0.8677693733        1.7617659992       -1.3015317621
 C         -1.0094881729        1.3491697794       -0.3146420798
 C         -0.0249266974        1.5089280757        0.6465778958
 C         -0.2227371196        0.9410481255        1.9020922148
 C         -1.3724447712        0.2282045998        2.1825075839
 C         -2.3495909954        0.0632531130        1.2164078184
 C         -2.1625609765        0.6248783782       -0.0386444380
 N         -3.1394445061        0.4419259149       -1.0301755915
 S         -4.7481843623        0.7131589302       -0.6531939411
 O         -5.3867787941        1.0148027443       -1.9160187273
 O         -4.8881576860        1.7046368501        0.3884676762
 C         -5.3300745477       -0.8668643920       -0.0739118100
 C         -5.9648464011       -0.9605198151        1.1490464148
 C         -6.4197649982       -2.1987163529        1.5752561907
 C         -6.2339404314       -3.3150716532        0.7744421046
 C         -5.5967629655       -3.2036814583       -0.4525086575
 C         -5.1406074853       -1.9687041969       -0.8847104499
 H         -4.6424272183       -1.8409020389       -1.8312645948
 H         -5.4533623970       -4.0742363839       -1.0722407174
 H         -6.5876904596       -4.2777660950        1.1082969109
 H         -6.9155943653       -2.2873698966        2.5285752675
 H         -6.0817939445       -0.0665137240        1.7408011386
 H         -2.8955296241        0.8342652636       -1.9274271363
 H         -3.2471673036       -0.4953599910        1.4261282986
 H         -1.5093685579       -0.2073173074        3.1607948117
 H          0.5444404351        1.0630541046        2.6551908056
 C          1.2500379641        2.2738605135        0.3913880375
 H          1.4207544505        2.9345736199        1.2573148092
 C          1.1719546304        3.1795785252       -0.8288973048
 C          2.4199157949        3.6772071527       -1.4933988916
 C          1.5226794043        2.7150234444       -2.2092971835
 H          0.9351625342        3.0851576936       -3.0374254875
 H          1.8491531489        1.6942208289       -2.3279753361
 H          3.3642908711        3.3137651694       -1.1148062082
 H          2.4498795116        4.7032566408       -1.8279678330
 H          0.3550230784        3.8911760714       -0.7475333952
 O          1.4380183898       -0.3097734163       -0.9861917456
