  62
        -98.94194448
 C         -1.1794224522       -1.5742402052        0.5056888121
 C         -2.1157390925       -1.1969932411       -0.4855484472
 C         -3.1450076945       -0.2276992286       -0.0733597368
 C         -3.1523719112        0.2361119238        1.1878151713
 C         -4.1216961428        1.1983921615        1.8272142321
 C         -4.5174409352        2.4439403645        1.0223561661
 C         -3.4249218949        3.0031447179        0.0986705853
 H         -3.3276711820        4.0765130705        0.2753859762
 H         -2.4553528887        2.5554218846        0.3295980793
 C         -3.7388081431        2.8025113727       -1.3860560531
 H         -4.7916878839        3.0391389522       -1.5578737845
 H         -3.1425997207        3.5121931528       -1.9649774228
 C         -3.4409048093        1.4092992638       -1.9375569230
 H         -2.3585654078        1.2504970214       -1.9610651745
 H         -3.7930897114        1.3732568084       -2.9715616812
 C         -4.0693710122        0.2412241299       -1.1590893387
 H         -5.0497204350        0.5070999677       -0.7711167814
 H         -4.1806033089       -0.6008621365       -1.8475718572
 H         -5.4040801631        2.2270867478        0.4276509702
 H         -4.8041327145        3.2081829968        1.7469420062
 H         -5.0262228699        0.6442209527        2.0951926019
 H         -3.6419639030        1.5051642938        2.7598266281
 O         -2.2396132350       -0.1678700128        2.1160757196
 C         -1.2146460797       -1.0396984236        1.7910581388
 O         -0.4103300757       -1.2589379277        2.7213798387
 H          0.4204595395        0.1227155197       -0.1945909111
 C          0.9618227782       -0.4604134554       -0.9223229645
 C          0.8289440447       -1.8410477936       -0.9271596640
 C          1.5128216506       -2.5650574292       -1.8963536684
 C          2.2910047830       -1.9111333606       -2.8363449316
 C          2.4208723302       -0.5336266778       -2.8241587881
 C          1.7442145447        0.1985765084       -1.8556417654
 N          1.8289635091        1.5974402944       -1.7983304427
 S          1.7777460014        2.3726155001       -0.3180305595
 O          0.4425036300        2.3506370659        0.2241341214
 O          2.3254515999        3.6849206287       -0.5890759708
 C          2.9113646738        1.4530514928        0.7078397051
 C          2.4571353590        0.6477545116        1.7313109996
 C          3.3766522055       -0.0908390939        2.4606016932
 C          4.7264607322       -0.0114005780        2.1582741042
 C          5.1694350769        0.8108751881        1.1326852509
 C          4.2554248312        1.5471600881        0.3984017930
 H          4.5606256607        2.2060101059       -0.3982114909
 H          6.2205964045        0.8761011912        0.9028071524
 H          5.4356396052       -0.5913943129        2.7274052322
 H          3.0196308900       -0.7268200539        3.2551943979
 H          1.4023282769        0.5942302313        1.9525518446
 H          2.4954808614        2.0176722130       -2.4284580106
 H          3.0265629901       -0.0282681193       -3.5603494806
 H          2.8092893720       -2.4843522584       -3.5898635377
 H          1.4288886953       -3.6393264580       -1.9205578294
 C         -0.0212740220       -2.4842653025        0.1446574725
 H          0.5942234603       -2.5681063791        1.0535963506
 C         -0.5169184006       -3.8642665296       -0.2370141367
 C          0.2978930126       -5.0797535104        0.0858021609
 C         -0.9599729859       -4.7967860539        0.8489954307
 H         -1.8250827670       -5.4184913578        0.6743224822
 H         -0.8745829300       -4.4451051997        1.8672428756
 H          0.2953294067       -5.9021621093       -0.6136423593
 H          1.2388349835       -4.9328067813        0.5942776173
 H         -1.0902934648       -3.8582046183       -1.1565325464
 O         -2.0957833917       -1.6440475290       -1.6618752478
