  62
        -98.94220481
 C         -2.5577622800       -0.2535796037        0.5934792448
 C         -2.1951141319        0.2646610460       -0.6747323010
 C         -2.0802983628        1.7274527980       -0.7577277031
 C         -2.2797781891        2.4817828107        0.3374226557
 C         -2.2479068706        3.9850328555        0.4029772824
 C         -0.8416301702        4.5772375575        0.5615252234
 C          0.0293101904        4.5197800666       -0.6935175848
 H         -0.5227588710        4.9323725448       -1.5388376953
 H          0.8905160287        5.1671479227       -0.5169756278
 C          0.5361731833        3.1147097840       -1.0455431742
 H          0.4590957644        2.4584673682       -0.1746825795
 H          1.5981840143        3.1581825132       -1.3007322523
 C         -0.1728549611        2.4492235618       -2.2250003908
 H          0.2450660610        1.4447354249       -2.3323480305
 H          0.0405041293        3.0051994750       -3.1416645510
 C         -1.6946608793        2.3288507891       -2.0753707108
 H         -2.1610421785        3.3075100525       -2.1956382230
 H         -2.0619262465        1.6654753844       -2.8628219735
 H         -0.3335825403        4.0581156949        1.3777624112
 H         -0.9591092608        5.6241606379        0.8511549850
 H         -2.8413145509        4.2679014057        1.2753056830
 H         -2.7198057042        4.3992311115       -0.4886929856
 O         -2.5748851766        1.9424001090        1.5505275513
 C         -2.6926616401        0.5720563444        1.7114144650
 O         -2.9248611317        0.2150372991        2.8851123602
 O         -1.9984783715       -0.4432649268       -1.6968930322
 C         -2.6989197153       -1.7469963133        0.8376593579
 C         -1.5348854536       -2.4735329946        0.2087591169
 C         -1.6601851760       -3.5752528017       -0.6263235678
 C         -0.5342114540       -4.1702352411       -1.1694248614
 C          0.7279362017       -3.6697043276       -0.9109300580
 C          0.8638835348       -2.5688044237       -0.0727054202
 C         -0.2606135830       -2.0019198942        0.5004392809
 H         -0.1493393786       -1.1460355444        1.1505478857
 N          2.1355016321       -2.0243299666        0.2175177475
 S          2.3038114485       -0.3596384279       -0.0496896962
 O          1.5691201030        0.3657960719        0.9552514466
 O          2.0023231315       -0.0553089408       -1.4302603066
 C          4.0536593901       -0.1744763210        0.2411397972
 C          4.9156504849       -0.0339726813       -0.8293788619
 C          6.2757036830        0.0778743723       -0.5852438028
 C          6.7477409246        0.0443345700        0.7180359807
 C          5.8697390684       -0.0959177959        1.7828523692
 C          4.5090297372       -0.2064487269        1.5453231723
 H          3.7882338331       -0.3079085198        2.3399608252
 H          6.2396950016       -0.1188509325        2.7952089445
 H          7.8062445504        0.1304403540        0.9060926227
 H          6.9598554023        0.1906340716       -1.4107354681
 H          4.5010895253       -0.0063822891       -1.8243219190
 H          2.8631814939       -2.5025272754       -0.3006402788
 H          1.6018994884       -4.1193057697       -1.3586379216
 H         -0.6440135199       -5.0240328800       -1.8210742700
 H         -2.6378106476       -3.9547171302       -0.8743301068
 H         -2.6085837285       -1.8616315960        1.9314237008
 C         -4.0554286620       -2.3198321054        0.4531918075
 C         -5.2707127833       -1.4460978282        0.3716693931
 C         -4.6910295523       -2.0411785018       -0.8745237697
 H         -5.2344109813       -2.8385681468       -1.3602252075
 H         -4.1565364108       -1.3968361782       -1.5541551650
 H         -6.2061923560       -1.8358470720        0.7441823535
 H         -5.1386157454       -0.3874942553        0.5439267454
 H         -4.2094657228       -3.3106546718        0.8694056238
