  62
        -98.94134058
 C         -2.4921178612       -0.3184040790        0.6058306939
 C         -2.3635556341        0.3321906205       -0.6472885063
 C         -2.2476959388        1.7963137617       -0.5999360591
 C         -2.1632072153        2.4257147146        0.5843452099
 C         -2.0428117412        3.9106041954        0.7962593379
 C         -0.6135310342        4.4482292486        0.6436699865
 C         -0.0988196673        4.5368492459       -0.7937288550
 H         -0.8369588291        5.0476340234       -1.4133914969
 H          0.7973442919        5.1602699565       -0.7720561337
 C          0.2622664343        3.1854127174       -1.4248520863
 H          0.4067854919        2.4351155419       -0.6439885614
 H          1.2155431841        3.2777128320       -1.9513788472
 C         -0.7541469209        2.6557434101       -2.4362594080
 H         -0.7692534171        3.3033964638       -3.3167078907
 H         -0.4295108453        1.6604788748       -2.7503287814
 C         -2.1859562326        2.5369111424       -1.9024258396
 H         -2.6283579967        3.5272311498       -1.7916726664
 H         -2.7720433758        1.9703620654       -2.6309646496
 H          0.0600296685        3.8187285627        1.2307954778
 H         -0.5962677007        5.4515019018        1.0764886694
 H         -2.7062140223        4.4341525921        0.1065871135
 H         -2.3783361120        4.1054957925        1.8172992437
 O         -2.2018046818        1.7572513330        1.7689414524
 C         -2.3583791827        0.3819552240        1.8065480257
 O         -2.3702009908       -0.0957340166        2.9612782481
 H         -0.0299991309       -1.4264774526        1.0888887621
 C         -0.1905956432       -2.0698181480        0.2340045977
 C         -1.4870055591       -2.4343287498       -0.1085430550
 C         -1.6790622300       -3.2718273856       -1.1976818165
 C         -0.5931155263       -3.7016983387       -1.9417219536
 C          0.6905878785       -3.2944093839       -1.6296752955
 C          0.8925389810       -2.4672167313       -0.5290462848
 N          2.1827452796       -2.0433649854       -0.1669621695
 S          2.3454140217       -0.5766979946        0.6533555715
 O          2.1739280402       -0.8268634661        2.0645905104
 O          1.4983032268        0.4388263346        0.0733725687
 C          4.0590562509       -0.2124926399        0.3206125503
 C          5.0308306117       -0.9387182093        0.9835836047
 C          6.3640752702       -0.6784189298        0.7100233811
 C          6.7017392140        0.2984546869       -0.2153470956
 C          5.7157446512        1.0206627457       -0.8702914054
 C          4.3798658200        0.7636024212       -0.6030903303
 H          3.5770563904        1.3010123310       -1.0823879082
 H          5.9805162255        1.7819448034       -1.5862166362
 H          7.7402221567        0.5001249783       -0.4251701929
 H          7.1335335528       -1.2359362724        1.2191050542
 H          4.7199288776       -1.6794891249        1.7016849341
 H          2.8576627436       -2.1417656410       -0.9126843694
 H          1.5302825014       -3.6071669042       -2.2313905859
 H         -0.7527241186       -4.3449714892       -2.7938875787
 H         -2.6777861303       -3.5580662391       -1.4839234392
 C         -2.5964156856       -1.8326633464        0.7173024365
 H         -2.3785185442       -2.0493944825        1.7769002194
 C         -3.9711790139       -2.4140861780        0.4320795601
 C         -5.2102201510       -1.6161273359        0.7076771334
 C         -4.8353502429       -1.9555634359       -0.7020656326
 H         -5.4262969132       -2.6964357754       -1.2208454541
 H         -4.4532117480       -1.1750467409       -1.3392178602
 H         -6.0563049946       -2.1166732348        1.1541012333
 H         -5.0783407412       -0.5963782462        1.0408276604
 H         -4.0161681074       -3.4704617489        0.6802792639
 O         -2.3664434746       -0.2585182779       -1.7576654481
