  62
        -98.93708867
 C         -1.7769110101       -0.8757933106        0.1338364736
 C         -2.3164281325        0.4247846308       -0.0057794840
 C         -3.7552645524        0.5581704210        0.2765773364
 C         -4.4553989344       -0.5280066361        0.6512782604
 C         -5.9375386881       -0.5694524105        0.8935917499
 C         -6.6901108135       -0.5945575709       -0.4521437432
 C         -7.5403870436        0.6469113692       -0.7222137314
 H         -7.8428027872        0.6143073814       -1.7711107222
 H         -8.4473286191        0.5949603522       -0.1161811141
 C         -6.8651959477        1.9925329968       -0.4399199304
 H         -7.4749529990        2.7609714922       -0.9199403384
 H         -6.8913673817        2.1993992683        0.6309821378
 C         -5.4187355872        2.1342483655       -0.9314186729
 H         -5.2898121296        3.1464243375       -1.3205256595
 H         -5.2239628193        1.4503085398       -1.7578321813
 C         -4.3486757551        1.9347369263        0.1584183762
 H         -3.4976820401        2.5856215877       -0.0643005120
 H         -4.7523548501        2.2431824003        1.1268656449
 H         -7.3413670874       -1.4690929866       -0.4888964969
 H         -5.9566810910       -0.7155495913       -1.2521197702
 H         -6.2378985759        0.2930362144        1.4843188166
 H         -6.1484579849       -1.4744424950        1.4635877308
 O         -3.8965857075       -1.7593839523        0.7827110735
 C         -2.5508827558       -1.9661758978        0.5288789708
 O         -2.1686793268       -3.1420211485        0.6944230389
 O         -1.6336356398        1.4262541588       -0.3464427554
 C         -0.3055765070       -1.1201923416       -0.1529934624
 C          0.5454015538       -0.2162162339        0.7042746548
 C          0.2954341247       -0.1690348702        2.0742961285
 C          1.0291688306        0.6591439274        2.8995815059
 C          2.0391684253        1.4499122594        2.3792704887
 C          2.3049535005        1.4022122583        1.0171024090
 C          1.5680008962        0.5640703314        0.1890955619
 H          1.7883257929        0.5600506338       -0.8649619733
 N          3.3181264809        2.1982420927        0.4631529359
 S          4.3023422303        1.5881125720       -0.7373012017
 O          5.4984167833        2.4003188512       -0.6693748057
 O          3.6185694291        1.5827134720       -2.0053466066
 C          4.6712456440       -0.0824372772       -0.2295249024
 C          5.2434085523       -0.2790633664        1.0122563175
 C          5.5208705837       -1.5715245825        1.4254398068
 C          5.2253403294       -2.6411457300        0.5937638279
 C          4.6585459205       -2.4268017544       -0.6525477443
 C          4.3764844502       -1.1354701233       -1.0695854412
 H          3.9316734663       -0.9252633969       -2.0283292740
 H          4.4331369667       -3.2588945194       -1.3005749010
 H          5.4396082393       -3.6473560434        0.9178460056
 H          5.9647926856       -1.7418070078        2.3929764678
 H          5.4719562040        0.5730167502        1.6313264135
 H          3.8354449284        2.7532176444        1.1283672251
 H          2.6069209371        2.1074458992        3.0197974032
 H          0.8155449046        0.6906900739        3.9573427855
 H         -0.4968714123       -0.7840492362        2.4795093677
 H         -0.1076037738       -2.1605632110        0.1439121318
 C         -0.0434480329       -0.9803217799       -1.6377582306
 C          1.0412784825       -1.7782628048       -2.2933823574
 C         -0.3959466999       -2.1220380792       -2.5417487335
 H         -0.8217513229       -1.9023654891       -3.5093872284
 H         -0.7981176308       -3.0118419068       -2.0791637124
 H          1.6023257363       -1.3179960925       -3.0931881210
 H          1.6185726902       -2.4415759649       -1.6675122481
 H         -0.2333913054        0.0226230844       -2.0037599013
