  62
        -98.93823204
 C          2.1433624742        1.2668000492       -0.1011487601
 C          2.5731400977        0.1451218300       -0.8462904648
 C          3.9625201697       -0.2987628977       -0.6231997103
 C          4.7358549939        0.3596963436        0.2600779064
 C          6.1847620645        0.1676900500        0.6577238683
 C          6.9395845028       -1.1017784523        0.2728632675
 C          6.4513860477       -2.3713639863        0.9701880566
 H          6.7194990910       -2.3110127443        2.0280201065
 H          6.9827998692       -3.2235785283        0.5410368464
 C          4.9490666941       -2.6316863107        0.8916628568
 H          4.4096981935       -1.8290845311        1.3989033071
 H          4.7402007558       -3.5545270495        1.4397365562
 C          4.3853181083       -2.7931500684       -0.5185896211
 H          3.3463880178       -3.1208646082       -0.4219986839
 H          4.9344308117       -3.5751739105       -1.0468783291
 C          4.3897165914       -1.5211379420       -1.3834490377
 H          3.6553369293       -1.6561646357       -2.1830690645
 H          5.3581513396       -1.3652026440       -1.8527216716
 H          7.9813179412       -0.9451329113        0.5658532743
 H          6.9330630097       -1.2315002342       -0.8053435426
 H          6.7213365890        1.0281668161        0.2428095655
 H          6.2128567034        0.2844430677        1.7457973684
 O          4.2722106344        1.4386443604        0.9575942959
 C          2.9807291571        1.9085045965        0.8099216313
 O          2.7022303468        2.8860066121        1.5330836343
 H         -1.1512636693        0.4034947414       -1.7259408951
 C         -1.1312472944        0.1177350797       -0.6864501444
 C         -0.2443209864        0.7295577949        0.1838041277
 C         -0.2392193140        0.3315589518        1.5186044274
 C         -1.0886002236       -0.6625772094        1.9642329134
 C         -1.9617673404       -1.2843250036        1.0881088440
 C         -1.9770593359       -0.8924117550       -0.2431753304
 N         -2.8606132512       -1.5170647281       -1.1374973391
 S         -4.4399066699       -1.7718369552       -0.6551729135
 O         -4.5106732981       -2.9276982729        0.2035954523
 O         -5.2017597604       -1.8480603528       -1.8817158688
 C         -4.8810674961       -0.3073258141        0.2640850549
 C         -5.1903689776       -0.4003578245        1.6054295649
 C         -5.4964301183        0.7563297137        2.3047618000
 C         -5.4842074146        1.9800862364        1.6542450282
 C         -5.1743248479        2.0569315243        0.3047873043
 C         -4.8681341176        0.9039869834       -0.3991090349
 H         -4.6300080704        0.9288179620       -1.4502592369
 H         -5.1676177804        3.0100170159       -0.1992968623
 H         -5.7187051270        2.8800171551        2.2006811505
 H         -5.7399686891        0.6992678256        3.3534456829
 H         -5.1878748479       -1.3715563985        2.0727475057
 H         -2.8068707597       -1.1708913598       -2.0835555091
 H         -2.6179484224       -2.0752758056        1.4130378775
 H         -1.0692243732       -0.9619480830        3.0012050939
 H          0.4501522024        0.8116682685        2.2001321738
 C          0.7279382157        1.7989431651       -0.2504227268
 H          0.6472899888        2.6371172105        0.4555260944
 C          0.4934090067        2.3190283294       -1.6525857455
 C         -0.6145715659        3.2954260873       -1.9068145005
 C          0.8125560413        3.7500614055       -1.9588774204
 H          1.2456176239        3.9866637416       -2.9192823806
 H          1.1876904616        4.3602887983       -1.1501972437
 H         -1.2111310392        3.6011887698       -1.0609404521
 H         -1.1631529951        3.2262846750       -2.8340296056
 H          0.7189463966        1.5866889097       -2.4187739929
 O          1.8419596923       -0.4590001999       -1.6740782035
