  62
        -98.93717074
 C         -1.8584989707        0.5839556158       -0.9650030954
 C         -2.1556801005       -0.3577976921        0.0474854503
 C         -3.5830046196       -0.6680331847        0.2482039188
 C         -4.5053330381       -0.0710694648       -0.5259378089
 C         -6.0010808533       -0.2667456149       -0.5266538929
 C         -6.7058107857       -0.3551790513        0.8338062677
 C         -6.0775017438        0.4955914307        1.9470449073
 H         -6.8572866580        1.0985616814        2.4159421320
 H         -5.3434086192        1.1833793587        1.5240595336
 C         -5.4154657616       -0.3470849012        3.0398936911
 H         -6.0682749738       -1.1902074138        3.2763814211
 H         -5.3244405851        0.2590939995        3.9444293170
 C         -4.0198881414       -0.8740230086        2.7074075892
 H         -3.7128213271       -1.5472925187        3.5116527976
 H         -3.3041830120       -0.0474150426        2.6935215789
 C         -3.8943499036       -1.6186248021        1.3681020560
 H         -4.7827380171       -2.2105203163        1.1610173068
 H         -3.0351398525       -2.2918846445        1.4379521456
 H         -6.7417466358       -1.3939186037        1.1591694257
 H         -7.7385009994       -0.0405059372        0.6743014222
 H         -6.3972356131        0.5819909543       -1.0893018848
 H         -6.2251173983       -1.1682621871       -1.1043549082
 O         -4.1701648196        0.8231398513       -1.4992503192
 C         -2.8536972523        1.1748892888       -1.7411456935
 O         -2.7019921888        2.0042171319       -2.6609367317
 H          2.0316218249        0.1716186827       -0.2403866137
 C          1.6341475614       -0.4974388034       -0.9846549476
 C          0.4049863138       -0.2416896964       -1.5722532548
 C         -0.0727420831       -1.1293391764       -2.5334963180
 C          0.6510339224       -2.2531469491       -2.8792045314
 C          1.8678521581       -2.5160937464       -2.2745414159
 C          2.3604766946       -1.6320311389       -1.3228762965
 N          3.6143446623       -1.8484692179       -0.7355325161
 S          3.9153213474       -1.4555581051        0.8624509875
 O          5.1204839044       -2.1936902665        1.1811470114
 O          2.7790384086       -1.7052014183        1.7161575684
 C          4.3072235354        0.2808769887        0.8343300522
 C          5.1345360664        0.7628268355       -0.1608429474
 C          5.4764484537        2.1056165071       -0.1540583878
 C          4.9968353238        2.9374429013        0.8463789911
 C          4.1707514303        2.4369585834        1.8411919777
 C          3.8205919063        1.0954195284        1.8371932684
 H          3.1696217006        0.6665735441        2.5829444483
 H          3.7977084640        3.0844680972        2.6191580567
 H          5.2650458750        3.9821275722        0.8508057423
 H          6.1163234112        2.4996925036       -0.9269576923
 H          5.4906131836        0.0867439318       -0.9198067883
 H          4.0616735630       -2.7159070982       -0.9936687837
 H          2.4314806196       -3.3984508290       -2.5373058731
 H          0.2637698308       -2.9348570236       -3.6216680641
 H         -1.0270092142       -0.9266539892       -3.0012471094
 C         -0.4185343090        0.9781214550       -1.2385363016
 H         -0.4483152642        1.6207519937       -2.1310906523
 C          0.1347833229        1.7835258068       -0.0814224918
 C          1.1758505797        2.8323160850       -0.3294791170
 C         -0.2239671605        3.2343945087        0.0230030778
 H         -0.4127304824        3.6493014990        1.0017275278
 H         -0.8532986528        3.6444647718       -0.7536977543
 H          1.5018871959        2.9776328464       -1.3481231451
 H          1.9526255289        2.9733645710        0.4065251514
 H          0.1866765197        1.2115600047        0.8387731868
 O         -1.2752257898       -0.9233647635        0.7467887125
