  62
        -98.93719964
 C         -1.9638134356       -1.1675476803       -0.1076471904
 C         -2.4863770879       -0.1096888066       -0.8873947053
 C         -3.9298303987        0.1496909558       -0.7446696483
 C         -4.6624606193       -0.6186924003        0.0794964764
 C         -6.1459329000       -0.5578636000        0.3440596660
 C         -6.7714199022        0.8298089731        0.5463642621
 C         -5.8496711775        1.8716378440        1.1970950664
 H         -6.3760511112        2.3377609336        2.0321637189
 H         -4.9607924933        1.3859052096        1.6033323597
 C         -5.4275632750        2.9819408803        0.2315136695
 H         -5.1059095107        3.8494104901        0.8129312981
 H         -6.2983858308        3.2861802093       -0.3535098907
 C         -4.2851384670        2.6278247257       -0.7201014503
 H         -3.3473391564        2.5499297308       -0.1627048874
 H         -4.1677618017        3.4536676171       -1.4260512598
 C         -4.4646784605        1.3231295248       -1.5134516265
 H         -5.5025341891        1.1773599635       -1.8031874024
 H         -3.8556267527        1.3950457177       -2.4186727329
 H         -7.1198631996        1.2154561640       -0.4108096456
 H         -7.6568081715        0.6890328196        1.1686182231
 H         -6.6595967137       -1.0651918624       -0.4776026712
 H         -6.2989282244       -1.1624968412        1.2411483746
 O         -4.1168789551       -1.6376701848        0.8024397318
 C         -2.7655660060       -1.9284005319        0.7415913509
 O         -2.4048623117       -2.8675531434        1.4791138705
 H          1.5301380679       -0.2026239678       -1.5518649252
 C          1.3178511752        0.2465646307       -0.5944727297
 C          0.3235815595       -0.2798736320        0.2137249595
 C          0.0786056960        0.3272878680        1.4428730675
 C          0.8013031587        1.4335795776        1.8458800167
 C          1.7911421929        1.9590464690        1.0325752648
 C          2.0430115476        1.3609885088       -0.1927725512
 N          3.0826845840        1.8694205743       -1.0047960485
 S          4.6149760601        1.6755745025       -0.3485345742
 O          4.7963971451        2.6244237321        0.7195367021
 O          5.5357777099        1.7761510942       -1.4579894612
 C          4.5835842336        0.0143061724        0.3010096205
 C          4.7450567456       -1.0377750857       -0.5784154772
 C          4.6111952678       -2.3331280222       -0.1061367497
 C          4.3073154875       -2.5519563041        1.2289493297
 C          4.1485984254       -1.4847989070        2.0993177219
 C          4.2852200761       -0.1871041252        1.6333425251
 H          4.1686012749        0.6692597462        2.2768071615
 H          3.9113500719       -1.6588466510        3.1365414200
 H          4.1930516507       -3.5608714907        1.5935543392
 H          4.7360069096       -3.1661282330       -0.7793773703
 H          4.9841155699       -0.8268062232       -1.6084626277
 H          3.0678906146        1.4923505757       -1.9423736493
 H          2.3767927572        2.8129094034        1.3328110801
 H          0.5947059671        1.8919457136        2.8012823234
 H         -0.6931806288       -0.0842098380        2.0796988461
 C         -0.4830049002       -1.4967127628       -0.1665761634
 H         -0.3138490130       -2.2657650392        0.6006246862
 C         -0.1202297521       -2.0729531945       -1.5189782051
 C          1.0951474302       -2.9391481702       -1.6590186739
 C         -0.2725816203       -3.5460113838       -1.7427809906
 H         -0.6293212108       -3.8868730169       -2.7031896780
 H         -0.6250106741       -4.1395068413       -0.9118915621
 H          1.6805365909       -3.1221775729       -0.7706246472
 H          1.6776749701       -2.8689401629       -2.5653493488
 H         -0.3800440162       -1.4128007500       -2.3387759634
 O         -1.7879236832        0.5816997059       -1.6734773885
