  62
        -98.93699057
 C         -1.4340083000       -1.4340170946       -0.2563220021
 C         -2.7848079054       -1.4643610322        0.1737925553
 C         -3.6095071530       -0.2775287097       -0.1125489015
 C         -3.0436696953        0.7863716321       -0.7117594763
 C         -3.6229936453        2.1196156221       -1.1369549237
 C         -4.9999776120        2.5641661958       -0.6514755218
 C         -5.0795093195        2.8751347404        0.8430867113
 H         -4.5109273203        3.7878452491        1.0383554679
 H         -6.1231481522        3.0742906944        1.0962254806
 C         -4.5410780732        1.7905136215        1.7728825769
 H         -3.4747492783        1.6441913074        1.5892388675
 H         -4.6443281502        2.1497424681        2.8004668752
 C         -5.2488147546        0.4402710751        1.6808732264
 H         -6.3217378927        0.5753539341        1.8316796887
 H         -4.8735785568       -0.1851574864        2.4955599027
 C         -5.0311334728       -0.3319753641        0.3684454226
 H         -5.7126826248        0.0078640616       -0.4078443976
 H         -5.2515944122       -1.3864836423        0.5589183012
 H         -5.7529254344        1.8328928950       -0.9303883509
 H         -5.2392501161        3.4842608195       -1.1917121268
 H         -2.8833621775        2.8714008729       -0.8445864021
 H         -3.6305143133        2.1037067065       -2.2322913885
 O         -1.7352704063        0.7786947706       -1.0933937067
 C         -0.8991268622       -0.3100084077       -0.8891446350
 O          0.2537847586       -0.1329002656       -1.3192132937
 O         -3.2898338598       -2.4510448528        0.7732631710
 C         -0.5655475047       -2.6322783892        0.0926035328
 C          0.6549880662       -2.1298024100        0.8172836109
 C          0.5767086471       -1.8285406058        2.1730903971
 C          1.6517369054       -1.2626196196        2.8336410840
 C          2.8145193745       -0.9578060175        2.1476262765
 C          2.8939119595       -1.2401677724        0.7902654384
 C          1.8325895676       -1.8538449505        0.1401583503
 H          1.9059593511       -2.0710415781       -0.9137253538
 N          4.0540290369       -0.8860665016        0.0701893217
 S          4.5061071258        0.7276418017        0.1041753407
 O          5.4665095642        0.8716289356       -0.9675526479
 O          4.9871415944        1.0459510589        1.4266255377
 C          3.0427875355        1.6818294007       -0.2524868313
 C          2.2094784303        2.0576271283        0.7808528574
 C          1.0568110407        2.7660834168        0.4847741257
 C          0.7611287405        3.0875278465       -0.8298104552
 C          1.6101946535        2.7053849118       -1.8552238292
 C          2.7596803686        1.9903753783       -1.5668027420
 H          3.4445351150        1.6726298777       -2.3367864451
 H          1.3715634659        2.9497324492       -2.8779826518
 H         -0.1416429306        3.6320760587       -1.0591830159
 H          0.3894403469        3.0573534675        1.2809805328
 H          2.4730845252        1.7949194015        1.7923926626
 H          4.0177401362       -1.1916628675       -0.8925624853
 H          3.6517370959       -0.4865132871        2.6369628001
 H          1.5811186526       -1.0438216506        3.8885380972
 H         -0.3439705173       -2.0320462944        2.7024003268
 H         -1.1755687907       -3.2154371749        0.8004254253
 C         -0.2363621720       -3.5628280734       -1.0640154957
 C         -1.2917353154       -3.9212063160       -2.0664338422
 C         -0.1062020211       -3.1070552286       -2.4850342329
 H          0.6451941928       -3.5797932346       -3.1013176650
 H         -0.2481820014       -2.0599728259       -2.6995421710
 H         -1.3621645191       -4.9447486642       -2.4023563061
 H         -2.2458321778       -3.4222194872       -1.9775173927
 H          0.4265490054       -4.3650577257       -0.7526423877
