  62
        -98.94371820
 C         -1.7500869684       -0.4689004544        0.5191141957
 C         -2.9481299064       -0.4252264003        1.2707771771
 C         -4.1834296545       -0.6667728354        0.5171617815
 C         -4.1201287658       -0.9301921452       -0.8009837589
 C         -5.2903462696       -1.2187991472       -1.7019050415
 C         -5.9887077161        0.0379829415       -2.2391286093
 C         -6.8229433148        0.8070538590       -1.2139038123
 H         -7.4244818929        1.5305134488       -1.7678735240
 H         -7.5123039800        0.1216041225       -0.7199205933
 C         -5.9965157376        1.5572493952       -0.1599496841
 H         -4.9645506714        1.6516538412       -0.5062279197
 H         -6.3880942703        2.5703565437       -0.0431204132
 C         -5.9967914622        0.9090696503        1.2246792975
 H         -7.0075421437        0.9284423882        1.6382856362
 H         -5.3537860677        1.5013716024        1.8810229555
 C         -5.4880656753       -0.5384530707        1.2440510653
 H         -5.3193556582       -0.8285776856        2.2840288685
 H         -6.2335820942       -1.2051272198        0.8113490718
 H         -6.6497268095       -0.2776585408       -3.0495677019
 H         -5.2331629297        0.7017331929       -2.6658042743
 H         -6.0139473625       -1.8417674307       -1.1755372555
 H         -4.8970856382       -1.7827467264       -2.5503449944
 O         -2.9453164609       -0.9837819485       -1.4829038729
 C         -1.7356159107       -0.7329260665       -0.8506058998
 O         -0.7440500113       -0.7814778352       -1.6018353691
 O         -2.9832453894       -0.1927043743        2.5093300311
 C         -0.4307894735       -0.2048633802        1.2208918006
 C          0.2563732607        0.9872593127        0.6026543877
 C         -0.4735377271        2.1559744390        0.3976527763
 C          0.1143633405        3.2638185930       -0.1795999804
 C          1.4460150400        3.2351578885       -0.5562903515
 C          2.1867019074        2.0789532270       -0.3470544487
 C          1.5911595116        0.9661429312        0.2325612972
 H          2.1831844649        0.0814114250        0.3919970778
 N          3.5274053701        2.0092855330       -0.7450373705
 S          4.6434948647        1.1127649138        0.1117946070
 O          4.4152104919        1.1927234614        1.5358613740
 O          5.9260476694        1.6019710170       -0.3482812865
 C          4.4276656648       -0.5624676207       -0.4510777532
 C          4.6208344716       -1.5930225112        0.4476931095
 C          4.4871029885       -2.9008315218        0.0089438078
 C          4.1652637075       -3.1538461681       -1.3154215969
 C          3.9788325580       -2.1078474174       -2.2062072384
 C          4.1142443649       -0.7980790990       -1.7747043859
 H          3.9676861613        0.0359341689       -2.4404734295
 H          3.7231761277       -2.3080747855       -3.2342829899
 H          4.0567098050       -4.1719905713       -1.6547172750
 H          4.6313510376       -3.7160467322        0.7002663298
 H          4.8592277018       -1.3493437250        1.4710721374
 H          3.9182135827        2.8624257416       -1.1155341306
 H          1.9061587912        4.0988250275       -1.0117756527
 H         -0.4663226762        4.1605892203       -0.3363371647
 H         -1.5138047144        2.1804638324        0.6932219315
 H         -0.6961407420        0.0535703017        2.2572834558
 C          0.4188237757       -1.4580797116        1.2339851523
 C          1.4148138343       -1.6859780394        2.3301336550
 C          0.1575222284       -2.4994241570        2.2789813608
 H          0.2268656022       -3.5395505010        1.9987368831
 H         -0.6180132448       -2.2922991615        3.0019016724
 H          2.3480201181       -2.1683746906        2.0823068081
 H          1.5033851834       -0.9264053273        3.0923796404
 H          0.6689526384       -1.8015580860        0.2361205966
