  62
        -98.93897717
 C          2.4684144498        1.0346497809        0.3690171905
 C          2.6273265300       -0.1717336095        1.1016820099
 C          3.9070368802       -0.8741018890        0.9450687697
 C          4.8534053302       -0.3397297283        0.1522631400
 C          6.1909902304       -0.9586335878       -0.1304905302
 C          6.1376811408       -1.8549823972       -1.3752542806
 C          4.9745615710       -2.8468933375       -1.3708703613
 H          4.0337521809       -2.2948929977       -1.4343179811
 H          5.0557072013       -3.4482209670       -2.2789169116
 C          4.9350771312       -3.7724680482       -0.1468568518
 H          4.7365033615       -4.7917284180       -0.4846297424
 H          5.9080271511       -3.7778988181        0.3456735583
 C          3.8522803810       -3.4250943490        0.8769271283
 H          3.7670824311       -4.2594648394        1.5784489878
 H          2.8874746210       -3.3241385490        0.3724985282
 C          4.0970301305       -2.1568581794        1.7045699490
 H          5.0928037405       -2.1956877193        2.1513660791
 H          3.3584085404       -2.1390203300        2.5115313389
 H          7.0812939609       -2.3982985968       -1.4499989408
 H          6.0405417407       -1.2176397167       -2.2569938003
 H          6.9104127402       -0.1562146075       -0.3016150396
 H          6.5061208105       -1.5382051982        0.7349849296
 O          4.6744472699        0.8206587820       -0.5233182394
 C          3.4841131797        1.5308956016       -0.4495013391
 O          3.4843566495        2.5608356820       -1.1515836885
 O          1.7372775001       -0.6347438202        1.8670928196
 C          1.1500812195        1.7659058504        0.5488806308
 C          0.1686638497        1.4953565207       -0.5674404195
 C          0.4926726098        1.7310032915       -1.8990830393
 C         -0.4382108400        1.4973183518       -2.8948329195
 C         -1.7050333899        1.0365728913       -2.5844254299
 C         -2.0451730600        0.8129895804       -1.2545136601
 C         -1.1045738602        1.0370623302       -0.2588745498
 H         -1.3705792102        0.8376145395        0.7681391900
 N         -3.3485876399        0.4100909099       -0.9203140204
 S         -3.6488687098       -0.5146074309        0.4562869291
 O         -3.4887097902        0.3181619785        1.6215085395
 O         -2.8761235395       -1.7366162407        0.4222988385
 C         -5.3793829297       -0.8642624413        0.2079910487
 C         -6.2900890200        0.1491095383        0.4419654391
 C         -7.6367417499       -0.0980842320        0.2296270589
 C         -8.0487923995       -1.3477044218       -0.2098232219
 C         -7.1238524492       -2.3552935214       -0.4376148423
 C         -5.7746755393       -2.1140195912       -0.2287717020
 H         -5.0206180890       -2.8684802309       -0.3860273724
 H         -7.4473978889       -3.3265096714       -0.7758203229
 H         -9.0977773394       -1.5380446920       -0.3731453421
 H         -8.3590048001        0.6820953477        0.4080664292
 H         -5.9242092903        1.1004134582        0.7913626697
 H         -3.8641928897        0.0575609502       -1.7153429307
 H         -2.4291654598        0.8576034915       -3.3646414801
 H         -0.1729558400        1.6759242624       -3.9260772694
 H          1.4778794697        2.0964225219       -2.1440931490
 H          0.7172728896        1.3497334898        1.4698003605
 C          1.3082495691        3.2640601103        0.7331477016
 C          0.2192416488        4.0266001897        1.4233434519
 C          1.5365024588        3.8154352197        2.1066695619
 H          2.2031188085        4.6571874698        2.2187649824
 H          1.5788598389        3.1122696992        2.9261195815
 H         -0.0215971615        5.0159732298        1.0661960524
 H         -0.6334543711        3.4675897192        1.7800364815
 H          1.8199828990        3.7449100209       -0.0902708281
