  62
        -98.93204597
 C         -2.1576520611       -1.1290736767        0.0747811543
 C         -3.0754589630       -0.5233239877        0.9659969957
 C         -3.9908194982        0.4868197921        0.4034025341
 C         -3.8581497861        0.8355437122       -0.8887139511
 C         -4.6668709372        1.8225266655       -1.6922248017
 C         -5.0045347275        3.1589714805       -1.0137227285
 C         -6.4818537437        3.2974286017       -0.6411474282
 H         -6.7289840764        4.3597574940       -0.5824497420
 H         -7.0842465888        2.8669887608       -1.4437830154
 C         -6.8807443666        2.6575956777        0.6875667090
 H         -7.9695732776        2.7054524372        0.7637417705
 H         -6.4718079344        3.2479193093        1.5105441196
 C         -6.4401859642        1.2040388857        0.8712758623
 H         -6.5740014056        0.6450270322       -0.0542938162
 H         -7.0951823358        0.7477236570        1.6165269058
 C         -4.9938954940        1.0579938933        1.3682365150
 H         -4.6254131376        2.0212264186        1.7332006218
 H         -4.9665544285        0.3824506319        2.2290558426
 H         -4.3768448911        3.2986278853       -0.1348787474
 H         -4.7591838377        3.9581182712       -1.7151471200
 H         -4.0759599066        2.0030293681       -2.5930967258
 H         -5.5867394458        1.3299296033       -2.0175286955
 O         -2.9118312278        0.2761764187       -1.6944291195
 C         -2.0452842899       -0.7123996261       -1.2519357377
 O         -1.2470595504       -1.1073733420       -2.1199047574
 O         -3.1317095314       -0.8145921698        2.1921727398
 C         -1.2295973660       -2.1940795599        0.6298762710
 C          0.1951913104       -1.9126757565        0.2220223224
 C          0.9866510723       -2.8046763180       -0.4880103130
 C          2.2895978157       -2.4741291193       -0.8185169923
 C          2.8297775791       -1.2556789187       -0.4527736333
 C          2.0487553773       -0.3564003555        0.2618998555
 C          0.7476658618       -0.6940470977        0.5991689625
 H          0.1380194180        0.0080728498        1.1563859709
 N          2.5836447067        0.8925222167        0.6245344406
 S          4.0712238742        0.9275557067        1.4019737912
 O          4.2986867668       -0.2793892893        2.1626159251
 O          4.0770511543        2.1674377751        2.1478232706
 C          5.2497576678        1.0451342498        0.0730332059
 C          6.2549203420        0.1051322223       -0.0429454757
 C          7.1653000928        0.2227794744       -1.0817685211
 C          7.0555446062        1.2731323156       -1.9800432286
 C          6.0417988638        2.2105248672       -1.8477575907
 C          5.1290438766        2.0991038857       -0.8111949218
 H          4.3293726059        2.8073516689       -0.6713907294
 H          5.9593482917        3.0258700872       -2.5483374173
 H          7.7642601150        1.3622865401       -2.7881792973
 H          7.9543105925       -0.5044910711       -1.1863235048
 H          6.2978806796       -0.6969929309        0.6765200522
 H          1.9241738564        1.4968036239        1.0926796821
 H          3.8412529888       -0.9931311251       -0.7161924408
 H          2.8912552255       -3.1745887487       -1.3773845485
 H          0.5780272358       -3.7507306451       -0.8021354215
 H         -1.2935782792       -2.0659948824        1.7241177141
 C         -1.6719836716       -3.6203894183        0.3393954416
 C         -3.1174963166       -3.9514166021        0.1220451363
 C         -2.1463031679       -4.0560975805       -1.0134047871
 H         -1.8697364760       -5.0413529903       -1.3593838683
 H         -2.1807003154       -3.3126684846       -1.7938937593
 H         -3.5058812339       -4.8606705347        0.5558048540
 H         -3.8234054285       -3.1334964072        0.1180219684
 H         -1.0970716798       -4.3436895756        0.9098010597
