  62
        -98.94080946
 C         -2.5874748501       -1.3247471329        0.2142839401
 C         -2.3971555559       -0.2265552552       -0.6625605967
 C         -3.5121677108        0.7333314700       -0.7402170997
 C         -4.6233200473        0.5258267714       -0.0126257161
 C         -5.8071569260        1.4465855369        0.0355004602
 C         -5.6654366037        2.4734470424        1.1676682869
 C         -4.3124889342        3.1849838803        1.1911188582
 H         -4.3392071580        3.9078553240        2.0093124347
 H         -3.5299891588        2.4604228869        1.4288324223
 C         -3.9513488648        3.9061279967       -0.1149947938
 H         -3.5551247516        4.8942181034        0.1283048191
 H         -4.8487863613        4.0559588730       -0.7164394897
 C         -2.8894862227        3.1982338722       -0.9590542487
 H         -2.5554397406        3.8909580876       -1.7365135825
 H         -2.0196279551        2.9646228223       -0.3387740119
 C         -3.3420646704        1.9105163005       -1.6589393293
 H         -4.2604051430        2.0993025668       -2.2190643241
 H         -2.5581336607        1.6283088472       -2.3682771696
 H         -6.4639924047        3.2105949136        1.0668119133
 H         -5.7968508345        1.9574677454        2.1215047539
 H         -6.7019162225        0.8469547403        0.2109339020
 H         -5.9042503696        1.9556509699       -0.9213940223
 O         -4.7729270237       -0.5406388697        0.8129054346
 C         -3.7592679807       -1.4707633376        0.9647220608
 O         -4.0181104173       -2.3732826622        1.7852688704
 O         -1.3669619265       -0.0414458347       -1.3615968355
 C         -1.5190971262       -2.3815389142        0.4507989261
 C         -0.2011405584       -1.7108705937        0.7447862662
 C          0.0347642588       -1.1978574477        2.0164588982
 C          1.2146886126       -0.5365717502        2.3016328956
 C          2.1759344118       -0.3607516930        1.3214866188
 C          1.9383678370       -0.8477935972        0.0435082816
 C          0.7652654031       -1.5385201116       -0.2323642691
 H          0.5842263009       -1.9043019006       -1.2309545386
 N          2.8982719554       -0.6618301529       -0.9641144806
 S          3.6734846741        0.8196535793       -1.0941501236
 O          2.8612630685        1.9112987724       -0.6103556562
 O          4.1034959253        0.8974596155       -2.4736742492
 C          5.1107315317        0.6226957768       -0.0584662522
 C          5.9212317757       -0.4752420496       -0.2714326754
 C          7.0487168470       -0.6385467395        0.5171946459
 C          7.3476156029        0.2949814902        1.4984672222
 C          6.5264929296        1.3940117660        1.6976724374
 C          5.3965263497        1.5624453759        0.9122837914
 H          4.7268362712        2.3991113859        1.0347991122
 H          6.7603112829        2.1194136437        2.4603680029
 H          8.2256587132        0.1654522222        2.1113357392
 H          7.6897100093       -1.4919495549        0.3649978490
 H          5.6557902847       -1.1754631614       -1.0456335128
 H          2.5954830140       -0.9871449138       -1.8709597545
 H          3.0905421367        0.1688312086        1.5322876446
 H          1.3871561234       -0.1486340791        3.2941866885
 H         -0.7249446727       -1.3165649332        2.7772039468
 H         -1.8421351527       -2.9067811709        1.3635530942
 C         -1.4155046524       -3.4383197175       -0.6393051982
 C         -2.6555917073       -4.0073025909       -1.2601158282
 C         -1.7220066626       -3.1717047405       -2.0809040621
 H         -1.1179361644       -3.6659847361       -2.8283166045
 H         -2.0294504135       -2.1765773827       -2.3603469391
 H         -2.6996637654       -5.0694908465       -1.4473362865
 H         -3.6002896639       -3.5753318787       -0.9626885830
 H         -0.6115115545       -4.1400063109       -0.4378000944
