  62
        -98.94577953
 C         -1.4191792404       -1.6501544698       -0.3992274301
 C         -1.3048473308       -0.3614041199       -0.9782116605
 C         -2.4536565512        0.5325638197       -0.7765661309
 C         -3.4942429911        0.1401955596       -0.0216595408
 C         -4.7408630314        0.9347337792        0.2602557689
 C         -4.5967116918        1.9430980497        1.4078696986
 C         -3.7570391322        3.1797234098        1.0857481882
 H         -4.1156623023        3.6312626494        0.1601299281
 H         -3.9271712025        3.9003436900        1.8882271780
 C         -2.2495945721        2.9114317904        0.9787970984
 H         -1.6998171824        3.6798772807        1.5282166782
 H         -2.0027630818        1.9594467906        1.4554751487
 C         -1.6992224920        2.8976341801       -0.4467879816
 H         -0.6421540319        2.6273991505       -0.3886036314
 H         -1.7755884024        3.8971145999       -0.8817082219
 C         -2.3874316216        1.9006058895       -1.3857660913
 H         -3.3871590017        2.2512445991       -1.6420453415
 H         -1.7926603615        1.8292032395       -2.2997366312
 H         -5.6020997219        2.2731568394        1.6801151284
 H         -4.1687419816        1.4304336901        2.2726604088
 H         -5.0555901215        1.4552415888       -0.6447800513
 H         -5.5132240911        0.2120548590        0.5325989691
 O         -3.5400308307       -1.0818650302        0.5724578496
 C         -2.5164896403       -1.9959124399        0.3952425500
 O         -2.7004743400       -3.0826112498        0.9827122003
 H          1.1337115492       -0.5607046388       -0.0702483603
 C          1.4200343995       -1.3874915585        0.5579898100
 C          0.7410167499       -2.5922142887        0.4513857703
 C          1.1161797502       -3.6477177983        1.2739783207
 C          2.1435194001       -3.4937866077        2.1880559107
 C          2.8036534297       -2.2841586974        2.3077016203
 C          2.4339097493       -1.2226143778        1.4893132700
 N          3.0897721789        0.0146452925        1.5693966896
 S          2.2375595684        1.4422526421        1.3631073491
 O          2.9718055680        2.4215945826        2.1412169488
 O          0.8464615884        1.2868935317        1.7195714391
 C          2.4165489283        1.8707878416       -0.3570422910
 C          1.9420667679        3.1129797213       -0.7309392715
 C          2.0532827678        3.5085033009       -2.0535343816
 C          2.6411635682        2.6589436508       -2.9774378513
 C          3.1252813486        1.4223635211       -2.5838313408
 C          3.0161881287        1.0203024315       -1.2614084107
 H          3.3826857390        0.0606127917       -0.9363151904
 H          3.5842050489        0.7629894811       -3.3031815206
 H          2.7223236681        2.9632090105       -4.0091661914
 H          1.6781531675        4.4725808907       -2.3577193119
 H          1.4987269376        3.7456608414        0.0223564183
 H          3.7706599288        0.0959985329        2.3098787496
 H          3.5960245196       -2.1583612669        3.0299377303
 H          2.4255548604       -4.3197628374        2.8233053410
 H          0.5862037706       -4.5864392686        1.2060439210
 C         -0.3742277700       -2.7447672795       -0.5543836397
 H         -0.8958616397       -3.6862429396       -0.3328399694
 C          0.1968480101       -2.8303869297       -1.9576320796
 C          0.7927902706       -4.1226342097       -2.4248735092
 C         -0.5123628295       -3.6505082103       -2.9908779894
 H         -0.5371357496       -3.2875971907       -4.0072203695
 H         -1.4148998894       -4.1623947405       -2.6890583593
 H          1.6685346606       -4.0873852496       -3.0542150991
 H          0.7746457409       -4.9592223494       -1.7428964289
 H          0.6611165698       -1.9095395397       -2.2843806399
 O         -0.3175450609        0.0440124902       -1.6473653206
