  62
        -98.94311534
 C         -1.9144812271       -0.4426123951       -0.7689321990
 C         -2.3513940569       -0.1599185342        0.5483238491
 C         -3.7989414975       -0.2681201196        0.7722874776
 C         -4.6082105932       -0.6377827938       -0.2371370442
 C         -6.0992064124       -0.8243398788       -0.1550935065
 C         -6.9021050172        0.4734147549       -0.3182441504
 C         -6.8434028682        1.4278361338        0.8750057376
 H         -7.6152779179        2.1840095770        0.7183117866
 H         -7.0999156755        0.8851397881        1.7853885563
 C         -5.4914732311        2.1320353273        1.0560474098
 H         -4.9136659610        2.0540357883        0.1322640279
 H         -5.6574338137        3.1957588779        1.2407923675
 C         -4.6476339488        1.5975340874        2.2133024057
 H         -3.7002229548        2.1419978464        2.2262655104
 H         -5.1596574745        1.7890106352        3.1589372701
 C         -4.3302538810        0.0989661818        2.1249717324
 H         -5.2183345404       -0.4881682938        2.3581784343
 H         -3.5540890759       -0.1318700553        2.8587493962
 H         -6.5533329494        0.9894075498       -1.2157970365
 H         -7.9452473514        0.1925390446       -0.4810328598
 H         -6.3720148025       -1.5021018288       -0.9670125017
 H         -6.3577988085       -1.2967977100        0.7930189943
 O         -4.1445450520       -0.9159194568       -1.4854243698
 C         -2.7957448997       -0.8098857260       -1.7849227164
 O         -2.5097619096       -1.0743509829       -2.9712644424
 O         -1.5776953041        0.1578919585        1.4876346114
 C         -0.4411701589       -0.3459610956       -1.1136231362
 C          0.3872913294       -1.2799024805       -0.2635624162
 C         -0.1297807427       -2.5139033980        0.1203257323
 C          0.6162606289       -3.3859334352        0.8889720135
 C          1.9067416302       -3.0602941687        1.2667164864
 C          2.4430264944       -1.8427050879        0.8690738496
 C          1.6819778381       -0.9580966633        0.1169960220
 H          2.1168358400       -0.0173697312       -0.1781793427
 N          3.7514927166       -1.4814524366        1.2271429835
 S          4.7544727992       -0.8036964478        0.0695591387
 O          4.4367306859       -1.2822379791       -1.2555584379
 O          6.0959902291       -1.0803381571        0.5392777107
 C          4.4687953074        0.9500632722        0.1760635171
 C          4.5222127314        1.7038183580       -0.9794485840
 C          4.3571240394        3.0776891470       -0.8935748918
 C          4.1422598838        3.6704096248        0.3410473534
 C          4.0917082738        2.8988138251        1.4923284743
 C          4.2611523077        1.5257217195        1.4139680606
 H          4.2257667243        0.8972213337        2.2879895931
 H          3.9207684357        3.3630383049        2.4502874509
 H          4.0115856661        4.7392082777        0.4056927935
 H          4.3947330415        3.6777559247       -1.7889517743
 H          4.6784975628        1.2011220026       -1.9204489456
 H          4.2427657469       -2.1710960438        1.7776561967
 H          2.4936845972       -3.7433874310        1.8620066577
 H          0.1931704311       -4.3330867964        1.1886900235
 H         -1.1325443573       -2.7800986277       -0.1854703007
 H         -0.3493202601       -0.6772297909       -2.1594512459
 C          0.0119983809        1.0980331003       -1.0191243719
 C          1.0504254218        1.6378276292       -1.9542890563
 C         -0.3824273113        2.0481186803       -2.1085169158
 H         -0.6634839492        3.0550954577       -1.8395239718
 H         -0.9466241762        1.6428002740       -2.9363331423
 H          1.7524754804        2.3657328121       -1.5761834146
 H          1.4677894844        0.9609673790       -2.6851645665
 H         -0.0019229307        1.4687257918       -0.0005739257
