  62
        -98.93068279
 C         -2.3764660422       -1.1102353724       -0.1242482532
 C         -2.4022642452        0.1824480006        0.4513033262
 C         -3.7357285833        0.7150764609        0.7994798603
 C         -4.8229594431       -0.0487428417        0.6019046174
 C         -6.2614757307        0.3249187405        0.8299416597
 C         -6.8929753189        0.8651793283       -0.4644313162
 C         -6.7108187759        2.3651421831       -0.6934174041
 H         -7.0837725964        2.5883525320       -1.6956584039
 H         -7.3320398228        2.9143041717        0.0171770329
 C         -5.2719571656        2.8758096235       -0.5801068575
 H         -5.2123795490        3.8285348272       -1.1100088665
 H         -4.5942359837        2.1845534265       -1.0847213153
 C         -4.8186192129        3.0866627693        0.8722397348
 H         -5.6898659520        3.0469706858        1.5257831985
 H         -4.3982058598        4.0889659259        0.9770708861
 C         -3.7501095640        2.1046125604        1.3762473106
 H         -2.7547901217        2.5044116169        1.1572543529
 H         -3.8204132179        2.0285715090        2.4663948763
 H         -6.4649667477        0.3098807662       -1.3031030849
 H         -7.9640150087        0.6538458840       -0.4465143712
 H         -6.7801412056       -0.5932963738        1.1130921110
 H         -6.3497597655        1.0424277210        1.6401276821
 O         -4.7472130095       -1.3108490871        0.0955896418
 C         -3.5393669896       -1.8695561120       -0.2757807047
 O         -3.6266732835       -3.0352662845       -0.7109397141
 H          1.2969639510       -0.3521857943       -0.6964915985
 C          1.1413920590       -0.8412414666        0.2504380569
 C         -0.0096948060       -1.5739617578        0.4876342778
 C         -0.1836863811       -2.1577934337        1.7400229080
 C          0.7712915122       -2.0101058574        2.7267995357
 C          1.9277113884       -1.2909931224        2.4808497433
 C          2.1058173167       -0.6962581514        1.2377005387
 N          3.2509939518        0.0700183606        0.9686664517
 S          3.8889396372        0.0527395644       -0.5920164457
 O          3.1911511855        1.0156816118       -1.4056564195
 O          3.9238289101       -1.3023245532       -1.0971494255
 C          5.5438737192        0.6335577347       -0.2661143173
 C          6.5701096253       -0.2808806880       -0.1219616161
 C          7.8455008991        0.1819161373        0.1618960259
 C          8.0712633955        1.5432689783        0.2990495236
 C          7.0313950424        2.4491952657        0.1505341245
 C          5.7542080436        1.9933689301       -0.1345713569
 H          4.9170416107        2.6589148973       -0.2672372348
 H          7.2110735784        3.5070593652        0.2547856869
 H          9.0644587155        1.9011324803        0.5198823043
 H          8.6565317027       -0.5194132403        0.2742528142
 H          6.3491754607       -1.3288967537       -0.2455816538
 H          3.9696501101       -0.0296067794        1.6721454684
 H          2.6773768164       -1.1784048127        3.2493996491
 H          0.6198698279       -2.4661180406        3.6938167393
 H         -1.0862390952       -2.7240038311        1.9294190368
 C         -1.0793787521       -1.7711464628       -0.5574878060
 H         -1.3096407647       -2.8493406874       -0.5998585982
 C         -0.6190166045       -1.3723235344       -1.9518505137
 C         -1.6067653034       -1.0566056948       -3.0338298422
 C         -0.7424169438        0.0280680123       -2.4682272852
 H          0.0629139302        0.4207772860       -3.0725864976
 H         -1.1916313878        0.7625858671       -1.8185169031
 H         -2.6546117439       -1.0662867172       -2.7703746972
 H         -1.4040175732       -1.4114899214       -4.0330449031
 H          0.2676967697       -1.9226797213       -2.2555495112
 O         -1.3755631577        0.8775021528        0.6654482637
