  62
        -98.94622120
 C         -1.3784613053       -1.1240449903       -0.1459973142
 C         -2.4798194739       -1.1408329350        0.7468153905
 C         -3.2365200971        0.1117985793        0.8639475712
 C         -2.8323972070        1.1893610277        0.1666224872
 C         -3.5381610974        2.5138225983        0.1572113650
 C         -4.5708076336        2.5844912101       -0.9763364300
 C         -5.5057558970        1.3765975821       -1.0354602105
 H         -6.2107352290        1.5500401368       -1.8514213795
 H         -4.9257072012        0.4883440938       -1.2958377525
 C         -6.2821184103        1.1107578994        0.2619069727
 H         -6.2752817349        2.0036522748        0.8881486761
 H         -7.3237745381        0.9006226489        0.0099665426
 C         -5.7718209945       -0.0813709906        1.0737265445
 H         -5.6912218444       -0.9579192674        0.4258106124
 H         -6.5140410680       -0.3113097897        1.8429029878
 C         -4.4262038868        0.1200975872        1.7821634295
 H         -4.4546443539        1.0394994157        2.3704894357
 H         -4.2826945784       -0.7208664231        2.4669216104
 H         -5.1589326522        3.4956006041       -0.8517434604
 H         -4.0377863826        2.6508676877       -1.9274854915
 H         -4.0271601780        2.6663277374        1.1172877808
 H         -2.7978822337        3.3010388460        0.0086508578
 O         -1.7539328317        1.1773752277       -0.6544555718
 C         -1.0017407459        0.0270597653       -0.8399855617
 O         -0.0544658457        0.1669834726       -1.6355285827
 H          1.7830817060       -1.5062843527       -1.3965169943
 C          1.8599254243       -1.6581036453       -0.3319168477
 C          0.7725411261       -2.1460972393        0.3768428631
 C          0.8936173650       -2.3078918451        1.7540700270
 C          2.0721257518       -1.9890497334        2.4031514219
 C          3.1491826530       -1.4833443471        1.6953092003
 C          3.0315002927       -1.3063456403        0.3234646049
 N          4.1080451115       -0.7460857734       -0.4001510994
 S          4.5178629564        0.8275077732        0.0052143328
 O          5.4086275120        1.2748613843       -1.0415936927
 O          5.0570235035        0.8344332948        1.3422075543
 C          2.9997682352        1.7626492660       -0.0412232031
 C          2.6705586743        2.4362485398       -1.1994357212
 C          1.4797575699        3.1405405780       -1.2505552444
 C          0.6370998803        3.1486743713       -0.1512899609
 C          0.9751226767        2.4568163142        1.0005652122
 C          2.1687818836        1.7567773301        1.0608530687
 H          2.4657097397        1.2131691259        1.9431797693
 H          0.3089558770        2.4527864856        1.8494670663
 H         -0.2943157066        3.6906272583       -0.1961194468
 H          1.2062258061        3.6705059492       -2.1487466853
 H          3.3545188088        2.4047900228       -2.0325774194
 H          3.9658970245       -0.7925645192       -1.4001445341
 H          4.0657974156       -1.1995614219        2.1865650124
 H          2.1527002545       -2.1271842926        3.4708612019
 H          0.0434250179       -2.6731526617        2.3129611200
 C         -0.5585197523       -2.3973921533       -0.2847288169
 H         -1.0957324954       -3.1557894049        0.2998675216
 C         -0.4544400429       -2.8706871118       -1.7189047069
 C          0.0342704524       -4.2603313192       -1.9950640200
 C         -1.4067816437       -3.9146187972       -2.2166464624
 H         -1.7697422116       -3.8388815492       -3.2307711750
 H         -2.1374669281       -4.2989220695       -1.5200784929
 H          0.2828023834       -4.8780121620       -1.1453024762
 H          0.6625410374       -4.4258759559       -2.8569068544
 H         -0.1761306589       -2.0883404950       -2.4139690896
 O         -2.8140104438       -2.1571092640        1.4125309588
