  62
        -98.93377712
 C         -2.3232691075       -1.0565984463        0.2444601734
 C         -2.5848022493        0.0722207915       -0.5672797502
 C         -3.6287439631        0.9990715105       -0.0838949375
 C         -4.2330870694        0.7586131596        1.0915756967
 C         -5.3435015836        1.5439007074        1.7326307188
 C         -6.7124605290        0.9488033527        1.3613730941
 C         -7.3124269184        1.4761881166        0.0585328932
 H         -8.2050247476        0.8826639961       -0.1520245971
 H         -7.6334496750        2.5098247572        0.2037410900
 C         -6.3862631874        1.4190937529       -1.1591339287
 H         -7.0085272459        1.4581938854       -2.0554094407
 H         -5.8573555986        0.4643031557       -1.1753011043
 C         -5.3775817190        2.5765280830       -1.2046732366
 H         -5.4217874353        3.0557531019       -2.1849478885
 H         -5.6714931126        3.3334709590       -0.4777379440
 C         -3.9117687559        2.1799573654       -0.9728133347
 H         -3.4490860745        1.9229239960       -1.9311416903
 H         -3.3647302442        3.0468819132       -0.5867884825
 H         -7.4171308864        1.1608607512        2.1679006288
 H         -6.6004525578       -0.1369371923        1.3027526365
 H         -5.2057856860        1.4515379258        2.8118918996
 H         -5.2830660046        2.5931633619        1.4596875402
 O         -3.9260748294       -0.3213002559        1.8611458164
 C         -2.9880387008       -1.2505281383        1.4594198100
 O         -2.8331836800       -2.1984920096        2.2543841465
 H          0.0258278524        0.1367265774       -0.6759677352
 C          0.6215374671       -0.5469670180       -0.0886892204
 C          0.0784523617       -1.7673931057        0.2892344924
 C          0.8632193946       -2.6428943494        1.0297940409
 C          2.1590436556       -2.3035153265        1.3785612661
 C          2.6975418235       -1.0883501883        0.9951006148
 C          1.9206449673       -0.2056892618        0.2561724141
 N          2.4635651336        1.0331325253       -0.1418508298
 S          3.8356118085        0.9562104791       -1.1146323718
 O          3.8536349648        2.1975104963       -1.8567821997
 O          3.8570694358       -0.2604940437       -1.8938719937
 C          5.1827794320        0.9572436389        0.0495617740
 C          5.2981152664        2.0309553002        0.9107821045
 C          6.3440443009        2.0499406446        1.8195421570
 C          7.2530171015        1.0025483457        1.8495749313
 C          7.1255850693       -0.0661880851        0.9755377485
 C          6.0808442828       -0.0919122053        0.0646172487
 H          5.9380248548       -0.9035504973       -0.6307514549
 H          7.8338381327       -0.8786970520        0.9998572588
 H          8.0658266452        1.0198295522        2.5583384480
 H          6.4469072359        2.8795235506        2.5004122857
 H          4.5730745618        2.8254909812        0.8509226124
 H          1.7773930377        1.6366605314       -0.5742752123
 H          3.7064125373       -0.8193534835        1.2624934595
 H          2.7568199816       -2.9929945120        1.9547109226
 H          0.4474337269       -3.5910006688        1.3383808263
 C         -1.3218653206       -2.1398166739       -0.1241702585
 H         -1.6201326814       -3.0155614612        0.4733362585
 C         -1.4109975883       -2.5448987034       -1.5913452960
 C         -0.3311305778       -2.2965957177       -2.5977368069
 C         -0.5852841036       -3.6873939469       -2.1042636737
 H         -1.0438674888       -4.4013531090       -2.7714413129
 H          0.1423154675       -4.1141009152       -1.4303125902
 H          0.5730053679       -1.7987857028       -2.2814125300
 H         -0.6355285383       -2.0347683518       -3.6000180359
 H         -2.4285790920       -2.4800486188       -1.9638562773
 O         -1.9908693864        0.3178671468       -1.6509186665
