  62
        -98.94200795
 C         -1.2132734514       -0.9884208841        0.4306193189
 C         -1.7241353585       -0.6304341023       -0.8411819458
 C         -2.5686857105        0.5745956044       -0.8733722556
 C         -2.7803532879        1.2663347817        0.2609798756
 C         -3.6527848135        2.4821776137        0.3745234201
 C         -5.0943801293        2.0976699537        0.7362022877
 C         -5.6746672644        0.9844361319       -0.1360453751
 H         -5.1251687794        0.0593223633        0.0527467776
 H         -6.7037047348        0.8187072014        0.1901725330
 C         -5.6582910663        1.2835776344       -1.6416301627
 H         -6.6249048797        1.0026444112       -2.0651714829
 H         -5.5328155600        2.3545301019       -1.8058068064
 C         -4.5898336780        0.5219276179       -2.4283452487
 H         -4.8055133818        0.6371243851       -3.4940495725
 H         -4.6537334387       -0.5441385717       -2.1958056754
 C         -3.1427625127        0.9779646001       -2.2024739922
 H         -3.0715391047        2.0585349757       -2.3445712337
 H         -2.5198320861        0.4904254835       -2.9587492483
 H         -5.7200175720        2.9884780767        0.6557938221
 H         -5.1130113737        1.7619722415        1.7755647633
 H         -3.2509555806        3.1229122996        1.1610681344
 H         -3.6365315250        3.0262227223       -0.5678766739
 O         -2.2569212102        0.9026617363        1.4585852298
 C         -1.4826370830       -0.2401623480        1.5777693742
 O         -1.0964013131       -0.4803567473        2.7377142587
 O         -1.4823456700       -1.2670134316       -1.9003366721
 C         -0.3318487615       -2.2063843652        0.6067781262
 C          1.0167743560       -2.0671340405       -0.0637390001
 C          1.9208336243       -3.1262667332       -0.0461139106
 C          3.1787600577       -2.9974442470       -0.6061523138
 C          3.5654756896       -1.8126886903       -1.2099678079
 C          2.6662051824       -0.7598414220       -1.2491616395
 C          1.4126190687       -0.8838800970       -0.6664677241
 H          0.7357447053       -0.0399959293       -0.6894307685
 N          3.0608218215        0.4659595550       -1.8474603719
 S          3.9421386568        1.4424603480       -0.8086186253
 O          4.1064558114        2.7082395583       -1.4861184889
 O          5.1478784479        0.7434573827       -0.4472998732
 C          2.8875279282        1.6369136221        0.6163400914
 C          1.9504329036        2.6506050353        0.6156038057
 C          1.0591467890        2.7400771078        1.6727665064
 C          1.1128000563        1.8121780236        2.7013943471
 C          2.0558979993        0.7965787267        2.6835192828
 C          2.9508478832        0.7020521335        1.6302603116
 H          3.6959600922       -0.0755259340        1.5782210988
 H          2.0780103414        0.0701349048        3.4794353649
 H          0.4042272326        1.8639592899        3.5126948562
 H          0.3195822536        3.5250672882        1.6880689846
 H          1.9416030372        3.3532983444       -0.2029031480
 H          2.2736557050        0.9973914924       -2.1944549119
 H          4.5455632517       -1.6843787367       -1.6388843555
 H          3.8675780127       -3.8274747691       -0.5730705013
 H          1.6332102500       -4.0564021897        0.4177037496
 H         -0.1524299043       -2.2903301559        1.6889878378
 C         -1.0452916297       -3.4642379954        0.1386877854
 C         -0.9392711060       -4.7405248886        0.9159070205
 C         -2.2204261907       -3.9639688495        0.9230112695
 H         -3.0717325098       -4.3551921237        0.3865449709
 H         -2.4819851920       -3.4214144852        1.8204469452
 H         -0.9076598254       -5.6725507913        0.3722312885
 H         -0.3512730623       -4.7348532123        1.8215944991
 H         -1.1073631949       -3.5298557509       -0.9410554821
