  62
        -98.93845728
 C          1.1975494127        1.6518657968       -0.1229205146
 C          1.3097800693        0.2517536379       -0.2918769699
 C          2.5244905577       -0.3814074045        0.2602570445
 C          3.4482922497        0.3718431095        0.8835454414
 C          4.7457631733       -0.0042338057        1.5685229375
 C          5.3885168015       -1.3688755213        1.3325642044
 C          5.9000282368       -1.6007336191       -0.0886985110
 H          6.7569302480       -0.9446669764       -0.2617980639
 H          6.2523607956       -2.6321533540       -0.1597895940
 C          4.8900163477       -1.3429189752       -1.2042587357
 H          4.6164193204       -0.2857936083       -1.2142685297
 H          5.3837596898       -1.5548536158       -2.1567187423
 C          3.6168947931       -2.1848857427       -1.1415571069
 H          3.0696110129       -2.0201967361       -2.0734122737
 H          3.8799347969       -3.2429363609       -1.0896247516
 C          2.6610515630       -1.8568620187        0.0188637224
 H          2.9555469933       -2.3677822613        0.9320019672
 H          1.6642130728       -2.2139018936       -0.2528965579
 H          6.2488588474       -1.4260228335        2.0051192273
 H          4.7073528621       -2.1623165278        1.6249955967
 H          4.5590814126        0.1085655062        2.6422711215
 H          5.4607407015        0.7791672156        1.2975645971
 O          3.2892183739        1.7196406497        1.0349936528
 C          2.1856407964        2.3849463258        0.5391735363
 O          2.2008938181        3.6162673262        0.7419675412
 O          0.4525384994       -0.4649683771       -0.8716962250
 C          0.0198169644        2.4625293008       -0.6418878062
 C         -1.1775071833        2.3207150719        0.2672598790
 C         -1.5836432558        3.3885102466        1.0601985052
 C         -2.6835901046        3.2706480808        1.8905087161
 C         -3.4047001562        2.0915893512        1.9351679936
 C         -2.9996376836        1.0136157912        1.1548920057
 C         -1.8876651137        1.1297815556        0.3339654284
 H         -1.5710464744        0.2839949612       -0.2542895474
 N         -3.6908324944       -0.2020737395        1.2113695768
 S         -3.7921425729       -1.2222169326       -0.1083914408
 O         -3.8486097672       -0.4918939504       -1.3528601902
 O         -4.9480229743       -2.0486777774        0.1822062856
 C         -2.3480700341       -2.2565046020       -0.0286371230
 C         -1.8759875741       -2.6497754893        1.2069453802
 C         -0.8073834893       -3.5289010163        1.2647529406
 C         -0.2386296859       -4.0041295173        0.0931750573
 C         -0.7239716858       -3.5974801840       -1.1394033953
 C         -1.7888877403       -2.7143310245       -1.2033659623
 H         -2.1875898905       -2.3623839881       -2.1415312681
 H         -0.2713929583       -3.9571398240       -2.0497635809
 H          0.5920658608       -4.6910814113        0.1406983353
 H         -0.4192484076       -3.8387587266        2.2220026906
 H         -2.3406643504       -2.2602055351        2.0977573410
 H         -4.5412691706       -0.1958664763        1.7544933937
 H         -4.2708346176        2.0005710980        2.5730007067
 H         -2.9886418847        4.1073381200        2.5007294542
 H         -1.0213091828        4.3107249955        1.0283879985
 H          0.3469947461        3.5105386343       -0.5997778546
 C         -0.3411355784        2.1359960395       -2.0777236464
 C         -1.0795301286        3.1567027120       -2.8878677377
 C          0.3569584433        2.8541391826       -3.1910775360
 H          0.5924431898        2.3061679551       -4.0910728862
 H          1.0999159460        3.5912794318       -2.9216641269
 H         -1.8371792929        2.8145265196       -3.5762772845
 H         -1.3092390626        4.1002805343       -2.4157766824
 H         -0.5904237904        1.0954465227       -2.2377151764
