  62
        -98.93737401
 C          1.7942384331        1.5925479640        0.2564177312
 C          1.6917109109        0.4664103797       -0.5919601812
 C          2.5799038516       -0.6722205962       -0.2822776673
 C          3.4197193629       -0.5837145593        0.7646336973
 C          4.3948656005       -1.6098264644        1.2857104558
 C          5.2255671891       -2.3754433118        0.2444629512
 C          4.8148653723       -3.8417877096        0.0944347150
 H          5.6677349131       -4.4047250636       -0.2913573267
 H          4.5843344183       -4.2404414666        1.0847904178
 C          3.6333945942       -4.0977147476       -0.8398386781
 H          3.9484045226       -3.9360667973       -1.8729160744
 H          3.3598192507       -5.1511473105       -0.7443431953
 C          2.3929131269       -3.2425788579       -0.5740684846
 H          2.2152397836       -3.1539269971        0.4976014207
 H          1.5317874535       -3.7661143520       -0.9955069464
 C          2.4637515791       -1.8474566515       -1.2134948586
 H          1.5515662320       -1.6503272942       -1.7850677856
 H          3.2847599301       -1.8101396002       -1.9346860093
 H          6.2666954363       -2.3516002872        0.5705515877
 H          5.1782596639       -1.8661237813       -0.7165516822
 H          5.0585834910       -1.0543392597        1.9524914523
 H          3.8473285437       -2.3173497218        1.9143480392
 O          3.4702483283        0.5202143613        1.5660873273
 C          2.6683079009        1.6249419328        1.3402237628
 O          2.8182236487        2.5502506265        2.1645023069
 O          0.8909085940        0.4040439328       -1.5595852943
 C          0.9176588526        2.8055383236        0.0082580860
 C         -0.5408744565        2.4144186811        0.0012740275
 C         -1.4631245630        2.9443846731       -0.8920731843
 C         -2.7910015375        2.5555603949       -0.8445330552
 C         -3.2279939221        1.6307798135        0.0854780499
 C         -2.3126335775        1.0918936704        0.9808390272
 C         -0.9864353606        1.4929572667        0.9402814436
 H         -0.2788033763        1.0733064269        1.6452600962
 N         -2.7370961662        0.1383884572        1.9214847301
 S         -3.7702527293       -1.0731833060        1.4061611820
 O         -5.1247521124       -0.5779703034        1.4084045306
 O         -3.5082376991       -2.1887363141        2.2889634937
 C         -3.2792764105       -1.4688177168       -0.2625521211
 C         -1.9975985004       -1.9344599753       -0.4778066023
 C         -1.6052324631       -2.2382955123       -1.7703683794
 C         -2.4927733747       -2.0669703760       -2.8210697768
 C         -3.7773214021       -1.6016875059       -2.5881729244
 C         -4.1773294708       -1.2995868498       -1.2966920063
 H         -5.1668087407       -0.9371913706       -1.0697888713
 H         -4.4660174549       -1.4710301678       -3.4072256063
 H         -2.1778715307       -2.2981260985       -3.8263782118
 H         -0.6052734319       -2.5965230603       -1.9536472551
 H         -1.3251370360       -2.0559167426        0.3568026905
 H         -1.9915299645       -0.2366153219        2.4887503585
 H         -4.2592914911        1.3221944808        0.1386675829
 H         -3.4960223571        2.9770009915       -1.5444221839
 H         -1.1415820241        3.6615079134       -1.6291267745
 H          1.0847986398        3.4817121506        0.8600801933
 C          1.3549087834        3.5067160792       -1.2621711724
 C          1.2278785780        4.9940847787       -1.3915168166
 C          2.5792880886        4.3692142847       -1.2229471350
 H          3.2512887618        4.3516740826       -2.0678187216
 H          3.0793226386        4.4744892459       -0.2707022217
 H          0.9749394978        5.4087640501       -2.3557059942
 H          0.8145913858        5.5367390705       -0.5547106592
 H          1.1989172543        2.8983333077       -2.1455550961
