  62
        -98.93462482
 C         -2.4146990025       -1.1246325787        0.0142928183
 C         -2.4621631686        0.2847891558        0.1085853172
 C         -3.7857019255        0.8809982681        0.3723933606
 C         -4.8596445505        0.0792083805        0.5004478348
 C         -6.3098825464        0.3928165738        0.8058247108
 C         -6.8355274459        1.8232493972        0.7214280832
 C         -6.8796789178        2.4052941082       -0.6910474104
 H         -7.6566654537        1.8850877461       -1.2566987839
 H         -7.1677578869        3.4562611712       -0.6191436471
 C         -5.5823631471        2.2995962048       -1.4888101469
 H         -5.7582431649        2.7406766434       -2.4737637657
 H         -5.3327658862        1.2485565039       -1.6479706926
 C         -4.3767729815        3.0069359998       -0.8730142349
 H         -3.5699037795        2.9867377036       -1.6108970955
 H         -4.6235945453        4.0523114826       -0.6773492202
 C         -3.8318460104        2.3811153881        0.4224559597
 H         -2.7968721277        2.7133230120        0.5483706498
 H         -4.3910655536        2.7199902993        1.2912948383
 H         -7.8609993499        1.8001141916        1.0999851878
 H         -6.2702426682        2.4718130601        1.3840173840
 H         -6.4854478420        0.0190187756        1.8205633862
 H         -6.8981904562       -0.2444862777        0.1380951187
 O         -4.7591239483       -1.2801159577        0.4071851469
 C         -3.5543117707       -1.9121380664        0.1610265221
 O         -3.6268994181       -3.1562969624        0.1025254856
 O         -1.4460611428        1.0195181850       -0.0110684085
 C         -1.0987990687       -1.8238276027       -0.2698567289
 C         -0.0590622373       -1.4355247239        0.7533156452
 C         -0.4004934975       -1.4453065224        2.1033755795
 C          0.5231964801       -1.0917929965        3.0672263762
 C          1.8078176423       -0.7246908258        2.7071217848
 C          2.1664680191       -0.7332555596        1.3645559580
 C          1.2364741122       -1.0934040694        0.3987221344
 H          1.5387017281       -1.0844544603       -0.6345601035
 N          3.4833656462       -0.4220781016        0.9836885584
 S          3.7894895515        0.3414625229       -0.4892736670
 O          3.0152938955        1.5563951363       -0.6078106337
 O          3.6438719200       -0.6193391482       -1.5534729046
 C          5.5167875016        0.7297628359       -0.2702509030
 C          5.8892483339        2.0140594724        0.0781601164
 C          7.2332687974        2.2939680569        0.2701965133
 C          8.1764136126        1.2895782248        0.1138330091
 C          7.7874548799        0.0050988610       -0.2370486362
 C          6.4457152137       -0.2809755962       -0.4318040461
 H          6.0974106356       -1.2608213761       -0.7136797868
 H          8.5241203702       -0.7723034948       -0.3602501160
 H          9.2214870218        1.5099662058        0.2637703748
 H          7.5386204374        3.2922540761        0.5396064357
 H          5.1212682211        2.7640426748        0.1806745988
 H          4.0063827287        0.0183020940        1.7287194898
 H          2.5268482373       -0.4386155911        3.4597143815
 H          0.2393983672       -1.0941013658        4.1090787140
 H         -1.4077064143       -1.7232899069        2.3845195488
 H         -1.2972743523       -2.9011957779       -0.1639406242
 C         -0.6652980438       -1.5488995680       -1.6951878369
 C          0.1419689530       -2.5606728452       -2.4495470654
 C         -1.2927653837       -2.3252390759       -2.8121783367
 H         -1.5166070625       -1.8116402872       -3.7351696571
 H         -2.0191897307       -3.0782696029       -2.5422424741
 H          0.9128593090       -2.2071223568       -3.1182022026
 H          0.3908583306       -3.4794827746       -1.9401394634
 H         -0.4572510065       -0.4984507841       -1.8711464397
