  62
        -98.94456364
 C         -1.3909369898       -0.9998220759       -0.0486469417
 C         -2.6706562979       -1.3447331374        0.4496555812
 C         -3.5748409331       -0.2215525457        0.7206833297
 C         -3.1472204557        1.0401339725        0.5310298662
 C         -3.9376175016        2.2918464935        0.8010329722
 C         -4.8720803232        2.7005977186       -0.3457595585
 C         -6.1114871540        1.8218697730       -0.5187142449
 H         -6.6301154811        1.7342606854        0.4365149533
 H         -6.7811143560        2.3432086747       -1.2057366903
 C         -5.8218125005        0.4225636296       -1.0795714336
 H         -6.5373271147        0.1924481202       -1.8723063123
 H         -4.8279590340        0.4098763364       -1.5329213538
 C         -5.9093793827       -0.7042815298       -0.0501618482
 H         -6.9355971592       -0.7889873354        0.3143978863
 H         -5.6507371065       -1.6427121018       -0.5473931610
 C         -4.9753228586       -0.5329896110        1.1550127696
 H         -5.3528394884        0.2477546626        1.8149977400
 H         -4.9504526467       -1.4761771588        1.7063052788
 H         -4.3001249159        2.7102824391       -1.2763524431
 H         -5.2033080399        3.7226702532       -0.1481266736
 H         -4.5166306028        2.1695698588        1.7167920675
 H         -3.2095482870        3.0911662644        0.9529734974
 O         -1.8994620822        1.3311243648        0.0777751878
 C         -0.9975116077        0.3248652586       -0.2429950153
 O          0.0920783681        0.7380603910       -0.6772162250
 H          2.1711485574       -1.1843759241       -0.8156432307
 C          1.9915226043       -1.4602857850        0.2090323576
 C          0.7637983416       -1.9679014538        0.6034632721
 C          0.5773916365       -2.3085355589        1.9416640917
 C          1.5956857267       -2.1472402565        2.8604453899
 C          2.8170784282       -1.6282584083        2.4665076041
 C          3.0110645152       -1.2813428395        1.1347142722
 N          4.2430769719       -0.7629060020        0.7115337436
 S          4.3562142370        0.3675047914       -0.5077041844
 O          4.1129262872       -0.2493290671       -1.7880096215
 O          5.6836160201        0.9255453990       -0.3347967584
 C          3.1573915853        1.6499132771       -0.1901426838
 C          2.6377003597        2.3301795301       -1.2706585774
 C          1.7611597545        3.3783598725       -1.0483359567
 C          1.4167794886        3.7250945464        0.2472649054
 C          1.9470439537        3.0321387719        1.3229873475
 C          2.8313040967        1.9882519546        1.1066415740
 H          3.2492622290        1.4363719874        1.9331166671
 H          1.6688249407        3.2966253406        2.3311256239
 H          0.7228886813        4.5332575666        0.4191637275
 H          1.3394032781        3.9107396323       -1.8860768001
 H          2.9146413709        2.0151925420       -2.2641565642
 H          4.9136698242       -0.5870071151        1.4449900009
 H          3.6148330562       -1.4960892273        3.1817189672
 H          1.4383480343       -2.4207873359        3.8927474439
 H         -0.3831555695       -2.6978478633        2.2498358209
 C         -0.3991604240       -2.1121624836       -0.3452715243
 H         -0.9267780860       -3.0459241290       -0.1052416562
 C         -0.0021378239       -2.1389644540       -1.8051633922
 C          0.6183930446       -3.3772272450       -2.3769957056
 C         -0.7780425019       -2.9920878058       -2.7612429809
 H         -0.9550789671       -2.6182460977       -3.7586535701
 H         -1.5964692762       -3.5726577423       -2.3609655681
 H          1.4060149245       -3.2672592449       -3.1069973247
 H          0.7479461544       -4.2204023291       -1.7152743866
 H          0.3513229090       -1.1819476384       -2.1710120431
 O         -3.0368899751       -2.5314981903        0.6637850936
