  62
        -98.93782016
 C         -1.7662048231       -0.4046082785        0.4246777896
 C         -2.9355205062       -0.3510788362        1.2159178123
 C         -4.2165334266       -0.5433236835        0.5139399378
 C         -4.2154026223       -0.7487171055       -0.8167206403
 C         -5.3514316990       -1.0114238869       -1.7834748917
 C         -6.7989454320       -0.7373523587       -1.3832767878
 C         -7.1362644311        0.7375368790       -1.1679464596
 H         -7.0986427134        1.2478412028       -2.1337226155
 H         -8.1617573091        0.8024624960       -0.7976321063
 C         -6.2150557614        1.4920889618       -0.2125796651
 H         -5.2051787278        1.5256584890       -0.6268369468
 H         -6.5709420297        2.5241830066       -0.1502403576
 C         -6.1508323530        0.9366098674        1.2089667466
 H         -7.1593683117        0.8595156799        1.6197981976
 H         -5.5963348499        1.6556666621        1.8182391392
 C         -5.4541470468       -0.4276201539        1.3563946539
 H         -5.1279963177       -0.5285835318        2.3957127899
 H         -6.1387004615       -1.2464253612        1.1483343989
 H         -7.4220846712       -1.1007305158       -2.2050567808
 H         -7.0648466742       -1.3199529183       -0.5061775510
 H         -5.1137519606       -0.4345284351       -2.6828359121
 H         -5.2649557872       -2.0670891565       -2.0635776416
 O         -3.0565424168       -0.7993312660       -1.5373240951
 C         -1.8142584067       -0.6228466021       -0.9508060230
 O         -0.8573342837       -0.6818234158       -1.7447690229
 H          2.2128687340        0.0400742794        0.2818971177
 C          1.6378405270        0.9371514438        0.1259374711
 C          0.2979923746        0.9784135371        0.4772891563
 C         -0.4072307278        2.1623915547        0.2739626507
 C          0.2074818480        3.2647417668       -0.2854950129
 C          1.5449035070        3.2176421577       -0.6386691590
 C          2.2623351653        2.0476974276       -0.4268999351
 N          3.6141637836        1.9622575375       -0.7872561701
 S          4.6958759722        1.1284961349        0.1754723231
 O          4.3609104915        1.2398584014        1.5758856229
 O          5.9936412666        1.6446913616       -0.2064128423
 C          4.5790642034       -0.5676276791       -0.3527046093
 C          4.3748320469       -0.8471395786       -1.6891984513
 C          4.3303031779       -2.1711185376       -2.0958212664
 C          4.4984798497       -3.1873391447       -1.1675581532
 C          4.7092118753       -2.8900183635        0.1698657134
 C          4.7503872949       -1.5677759047        0.5839522327
 H          4.9004726671       -1.2912855708        1.6155937775
 H          4.8396547290       -3.6817475884        0.8906330413
 H          4.4635215060       -4.2167237218       -1.4879310552
 H          4.1622057188       -2.4059360714       -3.1345949992
 H          4.2427948646       -0.0352346456       -2.3846317768
 H          4.0147863698        2.8104252903       -1.1598618180
 H          2.0276787877        4.0783275336       -1.0762010802
 H         -0.3559823255        4.1721957681       -0.4435450021
 H         -1.4506364526        2.2037316696        0.5560784888
 C         -0.4151718134       -0.2042825418        1.0846812518
 H         -0.6341036563        0.0351341457        2.1364965186
 C          0.3872255795       -1.4875783727        1.0349909059
 C          1.3979129897       -1.7923946651        2.0986611444
 C          0.1086873914       -2.5543360526        2.0495641832
 H          0.1307958960       -3.5859675854        1.7325916947
 H         -0.6421592894       -2.3426465609        2.7968359104
 H          2.3051459524       -2.3021732303        1.8117220700
 H          1.5335676802       -1.0640452829        2.8842165769
 H          0.6009732986       -1.8039995134        0.0199213430
 O         -2.9139991396       -0.1505977539        2.4608474785
