  62
        -98.93245242
 C         -2.2300258624        0.0774951478       -0.3382702423
 C         -3.2798380200        0.6374169710        0.4287620538
 C         -4.4356794481       -0.2392757054        0.6946026067
 C         -4.4355131445       -1.5016759377        0.2366384795
 C         -5.4800536875       -2.5723183253        0.4298678788
 C         -6.9513390911       -2.1641887040        0.2668643512
 C         -7.2084781195       -1.0482113969       -0.7562447191
 H         -6.3127911430       -0.8754212215       -1.3554592096
 H         -7.9989647481       -1.3679538719       -1.4378502683
 C         -7.6512152506        0.2660287267       -0.1082261869
 H         -8.3764537841        0.0418082388        0.6770286379
 H         -8.1609772176        0.8734615996       -0.8599805075
 C         -6.5277629794        1.1203004979        0.4776971815
 H         -6.9845351852        1.9607790369        1.0056532974
 H         -5.9224020512        1.5404643225       -0.3300030302
 C         -5.5765461407        0.3912933528        1.4407440305
 H         -5.1298652329        1.1381719098        2.1021868237
 H         -6.1101747490       -0.3359396518        2.0474353179
 H         -7.4958322817       -3.0621100056       -0.0301273779
 H         -7.3534816631       -1.8588358168        1.2318594399
 H         -5.2308314736       -3.3450946864       -0.3012464956
 H         -5.3380826930       -3.0103824854        1.4220539407
 O         -3.3949273738       -2.0087901233       -0.4841290405
 C         -2.2884948239       -1.2420281175       -0.7953086182
 O         -1.4341300256       -1.8395369673       -1.4824374348
 H          1.4869554741       -0.2627397568       -0.6774587024
 C          1.2643699085        0.2717061789        0.2351683013
 C          0.0305223940        0.8840020223        0.3991176789
 C         -0.2365016938        1.5452347439        1.5936940002
 C          0.7175221256        1.5937301900        2.5932322917
 C          1.9577801431        1.0063970289        2.4157958926
 C          2.2307145014        0.3362169138        1.2292242938
 N          3.4715004966       -0.2886776033        1.0261550270
 S          4.1218538510       -0.2803280202       -0.5323162947
 O          3.9101527620        1.0097380927       -1.1492098307
 O          3.6209192517       -1.4233659892       -1.2540862169
 C          5.8516394256       -0.5108954871       -0.1648230178
 C          6.3174111700       -1.7898700744        0.0755014617
 C          7.6549685221       -1.9668042650        0.3920930924
 C          8.4995925604       -0.8687435150        0.4628859161
 C          8.0182618026        0.4083049346        0.2167330937
 C          6.6811824763        0.5926974393       -0.0986421934
 H          6.2640802387        1.5650218836       -0.3061373773
 H          8.6780156717        1.2593425556        0.2686755822
 H          9.5402856221       -1.0098744979        0.7083045481
 H          8.0332495154       -2.9584735360        0.5810098370
 H          5.6262698410       -2.6130664725       -0.0015548499
 H          4.1584403541       -0.0371520184        1.7238820516
 H          2.7068768114        1.0588020912        3.1913732067
 H          0.4978574072        2.1076611768        3.5169186441
 H         -1.1998738749        2.0113378935        1.7304067942
 C         -0.9753394892        0.8427937613       -0.7269058337
 H         -0.5218207344        0.2679160080       -1.5467831609
 C         -1.2567441175        2.2465690920       -1.2301045433
 C         -0.1919536117        2.9539155948       -2.0110912365
 C         -1.4364407175        2.4785363649       -2.6982945260
 H         -2.1605731964        3.2122463325       -3.0195391930
 H         -1.3616913397        1.6220542366       -3.3532766459
 H          0.7307593010        2.4218009979       -2.1948315726
 H         -0.0621529553        4.0146837406       -1.8604422802
 H         -1.8618017611        2.8341263893       -0.5526348598
 O         -3.2783264046        1.8091452952        0.8894163047
