  62
        -98.94247963
 C         -0.6859788684       -1.4538865818        0.5135459525
 C         -1.1809207437       -0.7914761538       -0.6312799346
 C         -2.2403505839        0.2138636791       -0.4097760465
 C         -2.5780559501        0.5298091436        0.8540264963
 C         -3.6483604481        1.4763026123        1.3326368567
 C         -5.0584373094        0.8817332397        1.2041328924
 C         -5.3538174246        0.2405816430       -0.1487422088
 H         -4.6550093585       -0.5810222446       -0.3140710807
 H         -6.3563796928       -0.1922547384       -0.0974303827
 C         -5.3146706490        1.1923210026       -1.3430044105
 H         -5.6845237492        0.6355323830       -2.2075912808
 H         -6.0041321399        2.0200344648       -1.1637841159
 C         -3.9402057318        1.7648945265       -1.7049200168
 H         -4.0115970328        2.1553901461       -2.7238471291
 H         -3.6815161794        2.6062112765       -1.0681468553
 C         -2.8100762764        0.7412739768       -1.7035567489
 H         -3.1211670546       -0.1368952372       -2.2809040151
 H         -1.9530004138        1.1517608987       -2.2484478037
 H         -5.7837613685        1.6730682102        1.4021484941
 H         -5.1775926546        0.1149778037        1.9738474284
 H         -3.4459829864        1.6691970949        2.3887388948
 H         -3.5911289304        2.4216313755        0.8025243366
 O         -1.9724515832       -0.0468889883        1.9347089560
 C         -1.0604995817       -1.0745206645        1.8006421384
 O         -0.6571442726       -1.5568914363        2.8799037404
 H          1.7886513461       -0.5182899357        0.9991838866
 C          2.1887455639       -1.0301000358        0.1351800961
 C          1.5359562824       -2.1555496100       -0.3537766475
 C          2.0772208254       -2.8175946098       -1.4478551073
 C          3.2367484086       -2.3518038472       -2.0428975011
 C          3.8805283858       -1.2286079018       -1.5589372649
 C          3.3536234760       -0.5669927343       -0.4543246577
 N          4.0068939530        0.5515002834        0.0791946275
 S          3.2048227198        1.7223528260        0.9404385596
 O          4.1282240358        2.8386704749        0.9525218787
 O          2.8138494641        1.2259034787        2.2364599618
 C          1.7681548102        2.1947013666       -0.0046331960
 C          0.6106019490        2.5132478534        0.6743903671
 C         -0.4673997162        3.0178997266       -0.0338816532
 C         -0.3746347533        3.1845941202       -1.4063466576
 C          0.7867695489        2.8372781383       -2.0782798737
 C          1.8729720397        2.3463724189       -1.3728670250
 H          2.7920950748        2.0869837734       -1.8721058981
 H          0.8523889467        2.9548127250       -3.1480009705
 H         -1.2107377899        3.5909550724       -1.9532758366
 H         -1.3686770174        3.2851018474        0.4928603798
 H          0.5748926639        2.3600763119        1.7421222683
 H          4.7779523465        0.9152818738       -0.4595439516
 H          4.7864436808       -0.8677883842       -2.0210482816
 H          3.6441101726       -2.8709546636       -2.8969468996
 H          1.5904819132       -3.6956206105       -1.8382896449
 C          0.2871422697       -2.6080323611        0.3609952986
 H          0.5732737224       -2.8986873586        1.3829886880
 C         -0.4057736484       -3.7794564120       -0.3048024639
 C          0.0438540179       -5.1809976872       -0.0252599354
 C         -1.2566608229       -4.6859717836        0.5308093838
 H         -2.1765267707       -5.0639375924        0.1103481381
 H         -1.3161353454       -4.4734085463        1.5887453545
 H          0.0139421662       -5.9033640700       -0.8269024978
 H          0.8683069329       -5.3139569100        0.6588922325
 H         -0.7594174402       -3.5420644233       -1.3015196624
 O         -0.7854946653       -1.0433347833       -1.7990820359
