  62
        -98.93949552
 C         -2.6293092583       -1.2039498102        0.2755632779
 C         -2.5308055277       -0.1729742421       -0.6917009572
 C         -3.7336734923        0.6587342080       -0.8647683377
 C         -4.8294464924        0.4059017028       -0.1279326078
 C         -6.0985668051        1.2055028410       -0.1704867671
 C         -6.0761012570        2.3370313759        0.8666864223
 C         -4.7997159449        3.1779336533        0.8363300219
 H         -3.9551354231        2.5566908265        1.1435840161
 H         -4.9104362910        3.9630298314        1.5874628617
 C         -4.4900859884        3.8139689924       -0.5260243419
 H         -4.1971348889        4.8539885146       -0.3678300228
 H         -5.3886182093        3.8212665376       -1.1441692386
 C         -3.3507576117        3.1430784101       -1.2957175579
 H         -2.4752450910        3.0485967888       -0.6481538633
 H         -3.0731465476        3.7953316363       -2.1279867293
 C         -3.6650134775        1.7615804631       -1.8833950477
 H         -2.8466779409        1.4952280309       -2.5588202155
 H         -4.5886442364        1.8090451818       -2.4639426715
 H         -6.1720021060        1.8962802584        1.8617459743
 H         -6.9417549951        2.9793921469        0.6951509668
 H         -6.9331958544        0.5381407241        0.0511000018
 H         -6.2300195873        1.6162810704       -1.1696055865
 O         -4.8863888868       -0.5915786691        0.7914399648
 C         -3.7886234309       -1.4005744540        1.0313402963
 O         -3.9652178987       -2.2462468461        1.9310332839
 O         -1.5058985952        0.0525096229       -1.3845285284
 C         -1.4613247939       -2.1235326968        0.5919156955
 C         -0.1962490506       -1.3162649388        0.7467223991
 C         -0.0805645110       -0.4575391963        1.8363006957
 C          1.0570685962        0.3049602822        2.0188531893
 C          2.1044453079        0.2299495483        1.1173245391
 C          1.9988678168       -0.6214816886        0.0267645750
 C          0.8577318735       -1.3937118553       -0.1488795743
 H          0.7819478840       -2.0361334609       -1.0125417286
 N          3.0515344210       -0.6866220529       -0.9017338352
 S          4.6052050095       -0.9503538098       -0.3314478168
 O          5.3193980725       -1.5512566539       -1.4371592563
 O          4.5935525031       -1.6971908485        0.9055493249
 C          5.2488600841        0.6855751880       -0.0496783459
 C          5.2276631905        1.5844188151       -1.0980631090
 C          5.7386439286        2.8568707266       -0.8984984176
 C          6.2622638024        3.2060118119        0.3375679541
 C          6.2785546250        2.2912801680        1.3792774642
 C          5.7676698690        1.0170866571        1.1865180128
 H          5.7545088859        0.2746914392        1.9686188225
 H          6.6858476105        2.5647188007        2.3394365827
 H          6.6596335606        4.1971200019        0.4898160081
 H          5.7265973012        3.5714127134       -1.7057921133
 H          4.8148704746        1.2738450689       -2.0434201660
 H          2.8526689510       -1.2648298773       -1.7049711144
 H          2.9933604028        0.8252034724        1.2494199138
 H          1.1293662004        0.9670274905        2.8685694850
 H         -0.9019364809       -0.3934057157        2.5377944655
 H         -1.7023978588       -2.5571424986        1.5765223687
 C         -1.3105786969       -3.2963148934       -0.3658197621
 C         -2.5140162688       -3.9361626544       -0.9893189591
 C         -1.5441364861       -3.1762307289       -1.8407931594
 H         -0.9026932736       -3.7358489199       -2.5067048269
 H         -1.8388415556       -2.2132138165       -2.2260877898
 H         -2.5397429705       -5.0124889038       -1.0696626250
 H         -3.4769023606       -3.4904634700       -0.7859680042
 H         -0.5176087083       -3.9695387878       -0.0520315351
