  62
        -98.94016051
 C         -0.7523872322       -1.6966284804        0.6166666659
 C         -1.5319795833       -1.5923419423       -0.5572683694
 C         -2.7376207843       -0.7432849287       -0.4776431839
 C         -3.0032491477       -0.1004894939        0.6744029926
 C         -4.1811238063        0.7850320072        0.9812039773
 C         -4.0659106547        2.1933338043        0.3688640282
 C         -3.4096709614        2.2506228809       -1.0088269095
 H         -3.2060968783        3.2985897621       -1.2413304113
 H         -2.4469588697        1.7369088242       -0.9705526592
 C         -4.2527502350        1.6808416866       -2.1473052159
 H         -5.1497882049        2.2935002402       -2.2657494496
 H         -3.6682916515        1.7650370874       -3.0668789424
 C         -4.6908211648        0.2262157770       -1.9860462716
 H         -5.4460343635        0.1381553709       -1.2098686293
 H         -5.1693736818       -0.0763178462       -2.9223869831
 C         -3.5555380729       -0.7651074941       -1.7458128625
 H         -3.9613225677       -1.7815332539       -1.8240431377
 H         -2.8296061608       -0.6806002597       -2.5624478634
 H         -3.4644115263        2.7999983202        1.0469837815
 H         -5.0634106030        2.6322161476        0.3172329016
 H         -5.0925588695        0.2891878531        0.6574421306
 H         -4.2274668028        0.8799120710        2.0681842087
 O         -2.1753082270       -0.1673942456        1.7565763997
 C         -1.0487567340       -0.9661729336        1.7655006181
 O         -0.4024834260       -0.9398056521        2.8339620986
 H          1.3845859932       -0.1552692219        0.3033906886
 C          1.8423683242       -0.8338704411       -0.4008992102
 C          1.4699620094       -2.1725089756       -0.3896648951
 C          2.0642159432       -3.0358817351       -1.3000649433
 C          3.0028674339       -2.5617555714       -2.2003398766
 C          3.3872041192       -1.2340767133       -2.1921857707
 C          2.8038064022       -0.3622539286       -1.2785481716
 N          3.1688236542        0.9909205414       -1.2399024525
 S          3.2716946410        1.8087686820        0.2178414639
 O          4.2436373653        2.8535352809       -0.0297800333
 O          3.5650925446        0.9145331755        1.3119905656
 C          1.6762010557        2.5715006643        0.4175770502
 C          0.8393158010        2.1986371668        1.4495343555
 C         -0.3777031956        2.8472597230        1.5925930162
 C         -0.7304295597        3.8564967360        0.7108480065
 C          0.1187250571        4.2161221371       -0.3248576078
 C          1.3333822796        3.5690322118       -0.4749562662
 H          2.0297305922        3.8282253422       -1.2549673352
 H         -0.1621831447        4.9994198822       -1.0101231229
 H         -1.6702414172        4.3710676971        0.8343560053
 H         -1.0382347656        2.5503125668        2.3924375589
 H          1.1393467618        1.4116127407        2.1258687178
 H          3.9160997150        1.2487249708       -1.8677829382
 H          4.1310145689       -0.8706364949       -2.8848639361
 H          3.4513089412       -3.2400830119       -2.9103832290
 H          1.7906226237       -4.0779295306       -1.3100092598
 C          0.4590090590       -2.6099028249        0.6423663606
 H          0.9203802713       -2.4749367970        1.6326436073
 C          0.0259607568       -4.0541914597        0.4990940363
 C          0.8515028900       -5.1516748990        1.0979171831
 C         -0.4660997879       -4.7852962641        1.7104643456
 H         -1.2954157582       -5.4678029418        1.6004293026
 H         -0.4644914025       -4.2483547006        2.6482883207
 H          0.9257760739       -6.0900884656        0.5694011462
 H          1.7505995301       -4.8695401525        1.6250696396
 H         -0.4802073817       -4.2455978256       -0.4399752951
 O         -1.2493119421       -2.1913417520       -1.6280199204
