  62
        -98.93964708
 C         -2.6592204767       -1.2958847791        0.3536360296
 C         -2.8866090703       -0.5180315060       -0.8082707069
 C         -3.8567018806        0.5805568846       -0.6655622459
 C         -4.4628257673        0.7856832567        0.5170190581
 C         -5.4139601467        1.9075403961        0.8144400976
 C         -4.6697224803        3.1338626447        1.3613960842
 C         -3.4556334859        3.5427079990        0.5271425319
 H         -3.0298845658        4.4361270583        0.9888599082
 H         -2.6985724708        2.7573690378        0.5899443665
 C         -3.7673784958        3.8294006008       -0.9484378518
 H         -3.2555562218        4.7480885160       -1.2427970776
 H         -4.8370038337        4.0000560782       -1.0750683118
 C         -3.3116468354        2.7367996376       -1.9174669674
 H         -2.2607684059        2.4992329831       -1.7327536455
 H         -3.3825203383        3.1326009153       -2.9342589373
 C         -4.1154417641        1.4307713534       -1.8780303469
 H         -5.1803940122        1.6513863031       -1.9738307826
 H         -3.8105881180        0.8278378343       -2.7386211258
 H         -4.3282039531        2.9079614144        2.3741459549
 H         -5.3723415940        3.9672146074        1.4172480382
 H         -6.1281008463        1.5628444161        1.5640699665
 H         -5.9535048669        2.1711365695       -0.0931070306
 O         -4.2322602875        0.0099119079        1.6061731358
 C         -3.3273535614       -1.0350220350        1.5546080867
 O         -3.2093136476       -1.6600791408        2.6270580964
 O         -2.3170970367       -0.7063420654       -1.9156509283
 C         -1.6877716531       -2.4653132237        0.3978725620
 C         -0.2827125094       -1.9899670791        0.6667397672
 C          0.4732754603       -2.5328021369        1.6985816445
 C          1.7641515852       -2.0909833572        1.9319180630
 C          2.3252249105       -1.1009606599        1.1452964731
 C          1.5795453444       -0.5545259367        0.1086355627
 C          0.2861893221       -1.0005290078       -0.1235685094
 H         -0.2873538808       -0.5813694087       -0.9374186266
 N          2.1298661780        0.4621010534       -0.6896559416
 S          3.6753766700        0.2496040907       -1.3080632338
 O          3.7300360934        1.0826595683       -2.4889979561
 O          3.9839208744       -1.1495946051       -1.4925067898
 C          4.7299696305        0.9498361774       -0.0559677115
 C          4.4780825274        2.2440738912        0.3552683802
 C          5.2926962678        2.8091239130        1.3232553503
 C          6.3414275308        2.0758074870        1.8583784615
 C          6.5837682618        0.7790770321        1.4319629868
 C          5.7716960680        0.2074977646        0.4645547883
 H          5.9188029341       -0.7991404941        0.1067004421
 H          7.3998726542        0.2111224935        1.8488140935
 H          6.9735887453        2.5180521897        2.6120691055
 H          5.1071963727        3.8173268240        1.6572026405
 H          3.6551816690        2.7803660107       -0.0873106562
 H          1.4998836750        0.7952932871       -1.4052250692
 H          3.3298760533       -0.7537019707        1.3228740073
 H          2.3398672123       -2.5203360749        2.7375165502
 H          0.0383654008       -3.2976435138        2.3252880605
 H         -2.0048093691       -3.0654527873        1.2649133842
 C         -1.7876898634       -3.3617155393       -0.8307559116
 C         -0.6924825215       -3.5277106475       -1.8373914271
 C         -1.0061031044       -4.6409558595       -0.8863292477
 H         -1.4891330959       -5.5290504382       -1.2645428160
 H         -0.3013471704       -4.8251077966       -0.0892966392
 H         -0.9790034787       -3.6299233206       -2.8732467005
 H          0.2281772710       -2.9821442936       -1.6977079599
 H         -2.7997478067       -3.3971219663       -1.2212071676
