  62
        -98.93968100
 C         -2.6511085310       -0.8445983549        0.3579552753
 C         -2.6895405739        0.2810087826        1.2161357221
 C         -3.4243888185        1.4466524182        0.7146047836
 C         -4.0026596398        1.3977112850       -0.4995362418
 C         -4.8136655689        2.4924370137       -1.1382988247
 C         -3.9728772834        3.5544890068       -1.8598740470
 C         -3.2017524193        4.5054417480       -0.9437434823
 H         -2.8348502478        5.3231576305       -1.5671633550
 H         -3.8852983742        4.9359863224       -0.2113017246
 C         -2.0093502604        3.8613748972       -0.2226221725
 H         -1.7462747998        2.9243967934       -0.7195785569
 H         -1.1401324211        4.5184833346       -0.2987275079
 C         -2.2412021258        3.5869452625        1.2634130713
 H         -2.3765729548        4.5321501944        1.7936510734
 H         -1.3490461409        3.1002216456        1.6657825185
 C         -3.4466972524        2.6849062555        1.5595140706
 H         -3.3942584425        2.3745173074        2.6059596403
 H         -4.3747624626        3.2343648105        1.4039620245
 H         -3.2753834685        3.0497165133       -2.5324158777
 H         -4.6548743989        4.1479989397       -2.4730705857
 H         -5.4616960917        2.0093643161       -1.8727206851
 H         -5.4393073395        2.9717305439       -0.3847934932
 O         -3.9277732247        0.3036132336       -1.3020690293
 C         -3.2330869525       -0.8325050749       -0.9101449012
 O         -3.2198755970       -1.7392573313       -1.7629800307
 H          0.1421154433       -0.4130323807        0.7390476035
 C          0.3124374026       -1.2483579417        0.0708874191
 C         -0.6553480699       -2.2430771326       -0.0169755064
 C         -0.4284308391       -3.3165214797       -0.8663729197
 C          0.7324733458       -3.3772624931       -1.6191628027
 C          1.6867256907       -2.3806431129       -1.5386483289
 C          1.4747438515       -1.3064798581       -0.6825643915
 N          2.4372124904       -0.2807463764       -0.5963765408
 S          4.0481116526       -0.7755113983       -0.4481263413
 O          4.5485459497       -1.0961603052       -1.7612201317
 O          4.1535248387       -1.8253426571        0.5406866378
 C          4.8231420643        0.7153386965        0.1439954856
 C          4.9899194762        0.8930100592        1.5043893754
 C          5.5804725403        2.0610885345        1.9602213133
 C          5.9896381750        3.0269771393        1.0530509706
 C          5.8148551716        2.8343352766       -0.3093583789
 C          5.2259959668        1.6683146077       -0.7720337650
 H          5.0793668234        1.4705043733       -1.8209803300
 H          6.1367707087        3.5866263836       -1.0112178766
 H          6.4505890821        3.9341242646        1.4105978163
 H          5.7200397833        2.2121744791        3.0185676961
 H          4.6668587923        0.1110851792        2.1731243174
 H          2.2040299882        0.3908837744        0.1229114056
 H          2.5956915388       -2.4231161569       -2.1167800665
 H          0.8960430179       -4.2148965070       -2.2806204100
 H         -1.1621565356       -4.1010810091       -0.9477257336
 C         -1.9010882948       -2.0824470698        0.8201236298
 H         -1.5858228918       -1.8605567205        1.8501821071
 C         -2.7963873172       -3.3015579075        0.8397841103
 C         -2.4234431710       -4.4808334378        1.6860043210
 C         -3.5773661674       -3.6102383773        2.0805946908
 H         -4.5785894403       -3.9999728368        1.9748127644
 H         -3.4541481094       -2.9481729222        2.9252841985
 H         -2.6321494538       -5.4714129773        1.3116077792
 H         -1.5138421575       -4.4117514046        2.2634458439
 H         -3.2807240046       -3.4870679879       -0.1114671137
 O         -2.1359890182        0.3093097988        2.3490328041
