  62
        -98.93419060
 C          2.2664661705        1.1198061047        0.0732471055
 C          2.7439555255        0.1556091463        0.9875612517
 C          3.0702377947       -1.1740711706        0.4410389876
 C          2.8493153398       -1.4135989670       -0.8643221655
 C          3.0930053288       -2.6801991016       -1.6452886244
 C          2.6473671766       -3.9929001951       -0.9823191830
 C          3.8142667880       -4.8748562706       -0.5339657324
 H          4.5946734812       -4.8293534306       -1.2962698759
 H          3.4687719686       -5.9096726090       -0.4822685942
 C          4.4141675563       -4.5194559262        0.8253434872
 H          5.3151129446       -5.1231933627        0.9563743517
 H          3.7143560495       -4.8040555899        1.6140069676
 C          4.7796778005       -3.0458673773        1.0143676576
 H          5.2316165907       -2.6444993028        0.1082625593
 H          5.5349641223       -2.9875742464        1.8008384992
 C          3.5935621207       -2.1687415198        1.4417109908
 H          3.8766617540       -1.5639562024        2.3089945854
 H          2.7638867787       -2.7996033026        1.7748191436
 H          2.0627187971       -4.5522566563       -1.7146392277
 H          1.9853949906       -3.7774129645       -0.1446202283
 H          4.1548551678       -2.7338687055       -1.8983964049
 H          2.5542170345       -2.5385559257       -2.5850107852
 O          2.3628254656       -0.4574344422       -1.7075288992
 C          2.0502209652        0.8172824979       -1.2706335522
 O          1.6025779118        1.5711586364       -2.1555786791
 O          2.8878660158        0.3918110124        2.2191853328
 C          1.8842368981        2.4992524589        0.5810583292
 C          0.4079452667        2.7094985222        0.3487667296
 C         -0.1305015177        3.8344777092       -0.2607120945
 C         -1.4918690529        3.9202781248       -0.5011606853
 C         -2.3437009265        2.8930544033       -0.1390845733
 C         -1.8168736514        1.7753351777        0.4916481495
 C         -0.4579478770        1.6949110169        0.7391190460
 H         -0.0537589223        0.8099951951        1.2175868938
 N         -2.6830248993        0.7036845924        0.8409029619
 S         -3.0049241546       -0.3312824036       -0.4619734906
 O         -1.9952025459       -1.3700451660       -0.5181506824
 O         -3.1896784638        0.4626022358       -1.6489894686
 C         -4.5643977325       -1.0340431187        0.0410664609
 C         -5.6899637997       -0.2370031124       -0.0386453044
 C         -6.9068939112       -0.7521395131        0.3770634506
 C         -6.9772326415       -2.0488127549        0.8649947970
 C         -5.8388952550       -2.8365709637        0.9387873113
 C         -4.6179323464       -2.3258938610        0.5255502575
 H         -3.7080919207       -2.9034153075        0.5597494301
 H         -5.8961677639       -3.8447859284        1.3165282255
 H         -7.9254683332       -2.4485568488        1.1879135186
 H         -7.7944750958       -0.1429490605        0.3198934345
 H         -5.5873779570        0.7606520538       -0.4318921296
 H         -2.2738996788        0.1309148982        1.5692185466
 H         -3.3992130019        2.9353687339       -0.3505065605
 H         -1.8913898171        4.7960389201       -0.9895372418
 H          0.5190347870        4.6381405180       -0.5669347681
 H          2.0655398698        2.4745733922        1.6659101175
 C          2.7595742613        3.5663558804       -0.0390666945
 C          3.0177692974        4.8485009538        0.6930710755
 C          4.1093414956        3.8315561380        0.5552195988
 H          4.9324959640        4.0417006637       -0.1108621248
 H          4.3885249580        3.2566174327        1.4260811709
 H          3.0946178244        5.7612216268        0.1219524229
 H          2.5593597233        4.9706355142        1.6626053705
 H          2.6729100604        3.5978936730       -1.1193639202
