  62
        -98.94002713
 C         -2.2650163197       -1.0387978335        0.3547958425
 C         -2.2623173701        0.1015757591       -0.4866384793
 C         -3.1303005584        1.2121066528       -0.0613478059
 C         -3.8212290028        1.1132077347        1.0879506536
 C         -4.7840973343        2.1421156894        1.6038233652
 C         -6.2100252685        1.8682230442        1.1051175760
 C         -6.3023130554        1.6215679221       -0.4007832262
 H         -5.7823142359        0.6917726838       -0.6427606025
 H         -7.3569402804        1.4707126128       -0.6410262512
 C         -5.7374995465        2.7566963368       -1.2661799485
 H         -6.4371841552        2.9575591868       -2.0801254126
 H         -5.6585480100        3.6694817939       -0.6745392945
 C         -4.3832288299        2.4500663735       -1.9081594154
 H         -4.1818906157        3.2172381478       -2.6604205518
 H         -4.4333564258        1.4893244530       -2.4267448155
 C         -3.1838123923        2.4210785960       -0.9525164602
 H         -2.2745805360        2.3837188670       -1.5598793420
 H         -3.1638903491        3.3377515485       -0.3595563735
 H         -6.8387779789        2.7184499859        1.3756249923
 H         -6.5935132406        0.9847982907        1.6211313719
 H         -4.4589787716        3.1297193654        1.2821914115
 H         -4.7765335841        2.1042514091        2.6945601272
 O         -3.7491690234        0.0279725318        1.9017297578
 C         -2.9719581338       -1.0667512416        1.5590321669
 O         -2.9821586976       -1.9849304161        2.4042596814
 O         -1.5778157464        0.2014248355       -1.5361258664
 C         -1.4215656455       -2.2614045321        0.0362431608
 C         -0.0340668871       -1.8361303547       -0.3812249955
 C          0.5709302564       -2.2240143610       -1.5686834408
 C          1.8515394100       -1.7959915944       -1.8733438403
 C          2.5521733350       -0.9738596342       -1.0109916363
 C          1.9591216784       -0.5837909958        0.1829911550
 C          0.6830486458       -1.0271564312        0.4927002437
 H          0.2205017554       -0.7234118173        1.4251372906
 N          2.6486080477        0.2741672217        1.0561812723
 S          4.2493092884       -0.0546360574        1.4295179226
 O          4.5252504483       -1.4721049069        1.3844081509
 O          4.4817319241        0.6036040215        2.6969858555
 C          5.1692237729        0.7892737015        0.1601221030
 C          6.1185063597        0.1050200068       -0.5734232508
 C          6.8294256733        0.7856337752       -1.5497294195
 C          6.5806673319        2.1311388817       -1.7729008534
 C          5.6257584091        2.8044326160       -1.0254561034
 C          4.9124338089        2.1303028235       -0.0473317699
 H          4.1635262151        2.6172397969        0.5548758456
 H          5.4339049386        3.8505375111       -1.2022678157
 H          7.1335019192        2.6585760956       -2.5341445935
 H          7.5721772066        0.2640649388       -2.1316597716
 H          6.2732863371       -0.9424871596       -0.3692990186
 H          2.1268359297        0.5241506854        1.8831690223
 H          3.5450698930       -0.6309525218       -1.2516731524
 H          2.3074296112       -2.0997923895       -2.8033445802
 H          0.0334788907       -2.8428705521       -2.2678595886
 H         -1.3277600248       -2.7987360957        0.9953360717
 C         -2.0764406288       -3.2303722924       -0.9374689790
 C         -3.5678845307       -3.3011408650       -1.0707378273
 C         -2.7393962263       -2.7691867007       -2.1992402066
 H         -2.6336445432       -3.3775707238       -3.0855588365
 H         -2.7513771180       -1.7091442588       -2.3957512126
 H         -4.0264563112       -4.2727287529       -1.1784901927
 H         -4.1563695735       -2.6046574931       -0.4907548124
 H         -1.5486474113       -4.1781739932       -0.9807789462
