  62
        -98.94438735
 C          1.8840941105        0.7998419298        0.1311360198
 C          2.3929192102       -0.5199315403        0.1898004089
 C          3.8185889202       -0.6353208208        0.5241954590
 C          4.5392453203        0.4714762689        0.7808984699
 C          5.9954171303        0.5133118184        1.1579170600
 C          6.9521954404        0.4679686990       -0.0413133299
 C          7.0564896903       -0.8886440505       -0.7392193208
 H          7.9136162404       -0.8369579202       -1.4135856907
 H          7.2703592701       -1.6611486111        0.0000738387
 C          5.8138180703       -1.2804815898       -1.5509167312
 H          6.1215276303       -1.6587298691       -2.5284680614
 H          5.2005883305       -0.3942674695       -1.7299885807
 C          4.9457996400       -2.3586285901       -0.9016587720
 H          4.0765478301       -2.5304832195       -1.5418683022
 H          5.5074139999       -3.2935103702       -0.8397457126
 C          4.4366256599       -2.0005798409        0.5007981482
 H          3.6619496098       -2.7197371210        0.7785491776
 H          5.2495892199       -2.0647011215        1.2237843382
 H          6.6428133706        1.2264477996       -0.7640621894
 H          7.9448156104        0.7418532486        0.3235325804
 H          6.2222126901       -0.3088498621        1.8371691595
 H          6.1523074704        1.4556765580        1.6871073507
 O          4.0022943606        1.7202441890        0.7452967706
 C          2.6747939006        1.9167550195        0.4005471506
 O          2.3198005908        3.1128720795        0.3808540914
 O          1.6983328801       -1.5477125101       -0.0224011418
 C          0.4330725506        1.0364176903       -0.2495454502
 C         -0.4797558897        0.2988587898        0.6988989992
 C         -0.2805882198        0.4520178988        2.0693969193
 C         -1.0745856400       -0.2170373516        2.9790693388
 C         -2.0949697601       -1.0443238812        2.5427729081
 C         -2.3100604200       -1.1961601402        1.1791006580
 C         -1.5117737898       -0.5181839697        0.2657105785
 H         -1.6936639797       -0.6682247890       -0.7848091116
 N         -3.3298017501       -2.0388356697        0.7123716373
 S         -4.2730024299       -1.5918683687       -0.5896365325
 O         -5.4597250000       -2.4109492285       -0.4704304532
 O         -3.5364986198       -1.7219701080       -1.8206388225
 C         -4.6824580496        0.1181890712       -0.2896883014
 C         -5.4651022997        0.4171431506        0.8086665987
 C         -5.7668083395        1.7421415205        1.0761614096
 C         -5.2817819292        2.7416736709        0.2460831403
 C         -4.5018032891        2.4247211916       -0.8547714098
 C         -4.1966649093        1.1003701017       -1.1269075907
 H         -3.5937380693        0.8120196022       -1.9720168808
 H         -4.1289510989        3.2027315319       -1.5019579792
 H         -5.5150447790        3.7735454708        0.4563852010
 H         -6.3767969195        1.9924409500        1.9291033497
 H         -5.8364454799       -0.3858283798        1.4243493681
 H         -3.8804189502       -2.4762317101        1.4361071869
 H         -2.7102752703       -1.5776531315        3.2512436177
 H         -0.8999592001       -0.0946258224        4.0373921689
 H          0.5194045103        1.0956454785        2.4098396398
 H          0.2586167807        2.1151124502       -0.1237211695
 C          0.2228764307        0.6759518313       -1.7053270305
 C         -0.7912855091        1.4081146421       -2.5290410001
 C          0.6708874709        1.6421440820       -2.7592241798
 H          1.1235586910        1.2521989525       -3.6586491300
 H          1.0992323811        2.5756718117       -2.4235595091
 H         -1.3447548891        0.8539668027       -3.2729965705
 H         -1.3539818090        2.1909614218       -2.0435960196
 H          0.3757494205       -0.3795142286       -1.9016829412
