  62
        -98.94080622
 C          2.5221120458       -0.3028241526       -0.0356245336
 C          2.1596101778       -1.3261395581        0.8670984061
 C          1.4002658564       -2.4665103125        0.3210117381
 C          1.1239513356       -2.4864760668       -0.9962597076
 C          0.3259891660       -3.4988654939       -1.7760607049
 C         -1.1840719132       -3.3387646752       -1.5594589844
 C         -1.6121850918       -3.2714760778       -0.0964019384
 H         -1.1927065909       -2.3708558734        0.3568826213
 H         -2.6995704073       -3.1519335371       -0.0772443572
 C         -1.2603255039       -4.4951479917        0.7483169504
 H         -1.7644043567       -4.3700848426        1.7097863730
 H         -1.6691988589       -5.3884307944        0.2710424489
 C          0.2291902320       -4.7237486766        1.0281691015
 H          0.7189184226       -5.2349886323        0.2030941358
 H          0.2982099316       -5.3917566013        1.8914737627
 C          1.0068246942       -3.4617988147        1.3856607610
 H          1.9449510817       -3.7506424140        1.8747995803
 H          0.4501550586       -2.8944683298        2.1415077206
 H         -1.6924432276       -4.1682560184       -2.0556007709
 H         -1.4966715183       -2.4052101543       -2.0349382939
 H          0.5459618881       -3.3196097856       -2.8311025862
 H          0.6438783550       -4.5084856988       -1.5341026011
 O          1.5437494725       -1.5011777112       -1.8412044370
 C          2.1872924446       -0.3679936261       -1.3873503608
 O          2.4287100223        0.4792049821       -2.2702529121
 O          2.4444096263       -1.2862329196        2.0972976333
 C          3.1363585779        0.9775333715        0.5039421272
 C          2.1420652172        2.0921183434        0.2780784988
 C          2.4647968250        3.3372875344       -0.2439152870
 C          1.4689533913        4.2675319595       -0.4927559656
 C          0.1395352178        3.9715743384       -0.2530802102
 C         -0.1899528330        2.7347631775        0.2907031304
 C          0.8126744587        1.8272485384        0.5808794449
 H          0.5445149523        0.8725618437        1.0093045476
 N         -1.5240747149        2.3728063092        0.5563025549
 S         -1.9253912694        0.7489726265        0.2799882540
 O         -1.5980022300       -0.0125114858        1.4596674381
 O         -1.3530207056        0.2981223667       -0.9671924944
 C         -3.6984040184        0.8772333550        0.1351021532
 C         -4.4588950074        0.9226736425        1.2882321469
 C         -5.8338637831        1.0571790170        1.1788377812
 C         -6.4221609333        1.1445049156       -0.0742946940
 C         -5.6464002586        1.0943068852       -1.2227224362
 C         -4.2704444456        0.9611188820       -1.1200758708
 H         -3.6267751563        0.9091204673       -1.9838475518
 H         -6.1060659888        1.1581185850       -2.1957847731
 H         -7.4923678171        1.2493125050       -0.1568200408
 H         -6.4403123787        1.0929148565        2.0693785986
 H         -3.9567225233        0.8413092912        2.2380689768
 H         -2.1904028525        2.9953421979        0.1188201240
 H         -0.6358370966        4.6856543329       -0.4856192124
 H          1.7313242303        5.2296975763       -0.9060943105
 H          3.4911230812        3.5729358968       -0.4736748306
 H          3.2439904941        0.8191411877        1.5877702345
 C          4.5000131488        1.2438380070       -0.0937502913
 C          5.5187662685        2.0299441518        0.6751244762
 C          5.6947382136        0.5536075988        0.4906334193
 H          6.4652708393        0.2029582655       -0.1791732712
 H          5.5256696745       -0.0934736162        1.3390397496
 H          6.1741522628        2.6939803190        0.1321887860
 H          5.2384452443        2.3870941677        1.6545243546
 H          4.4646425724        1.3597385320       -1.1709631856
