  62
        -98.94615116
 C         -1.0460495194       -1.5584675007       -0.1710074899
 C         -1.1687393099       -0.1642766707       -0.3930371901
 C         -2.2518452403        0.5055181189        0.3401120197
 C         -2.9951029102       -0.1796832813        1.2254967196
 C         -4.1035011106        0.3778948784        2.0769788694
 C         -5.4621340805        0.4516872478        1.3662737091
 C         -5.5802001407        1.5393707177        0.2978793590
 H         -6.6379863107        1.6202914172        0.0398628788
 H         -5.2741390911        2.4962217078        0.7218491289
 C         -4.7791998304        1.2599863778       -0.9814682008
 H         -4.5099446400        0.2020024579       -1.0180404907
 H         -5.4049738703        1.4619214975       -1.8536127810
 C         -3.5096226107        2.0985540783       -1.1293768807
 H         -3.0032830404        1.7942379284       -2.0484953106
 H         -3.7772135711        3.1532290682       -1.2230637309
 C         -2.5150256808        1.9479604288        0.0293500195
 H         -2.8833746912        2.4660502788        0.9149611693
 H         -1.5651641609        2.3960575091       -0.2703936504
 H         -5.6751190800       -0.5226841923        0.9205101492
 H         -6.2191096007        0.6395029276        2.1313642490
 H         -3.8238716410        1.3681515386        2.4384577793
 H         -4.1992570005       -0.2893680115        2.9365174494
 O         -2.8004715097       -1.5037019712        1.4672054098
 C         -1.8489536893       -2.2204816809        0.7625237600
 O         -1.8132259889       -3.4350438008        1.0512275002
 O         -0.4322331301        0.5115024394       -1.1590156300
 C         -0.0196053790       -2.4374944704       -0.8704689396
 C          1.3055635309       -2.3798310798       -0.1494709794
 C          1.9348138912       -3.5360183895        0.2963437808
 C          3.1389594211       -3.4629951690        0.9741473210
 C          3.7251741406       -2.2379853487        1.2380329810
 C          3.1013153902       -1.0769631890        0.7964889508
 C          1.9133577904       -1.1556674795        0.0869366506
 H          1.4390616301       -0.2507131897       -0.2546866296
 N          3.6559214597        0.1885472013        1.0412635707
 S          2.6353387691        1.4657595509        1.4128776104
 O          3.4758404687        2.3945705913        2.1448411804
 O          1.4530800192        1.0181920905        2.1146804202
 C          2.2117298991        2.2190646506       -0.1426214898
 C          2.9397827694        1.9465687807       -1.2818298096
 C          2.5981510794        2.5901797305       -2.4606773097
 C          1.5477411090        3.4933402801       -2.4791886100
 C          0.8319708787        3.7616773099       -1.3236673202
 C          1.1662972588        3.1194831902       -0.1429361000
 H          0.6282831886        3.2865785401        0.7775530498
 H          0.0105003685        4.4605669496       -1.3399237304
 H          1.2799026790        3.9870841498       -3.4001510101
 H          3.1494706296        2.3785194906       -3.3629767796
 H          3.7435470697        1.2301321710       -1.2401692394
 H          4.4828369096        0.1932879516        1.6205996109
 H          4.6529292805       -2.1781230283        1.7866671011
 H          3.6182378114       -4.3677966087        1.3161989012
 H          1.4649028416       -4.4936605397        0.1264336309
 H         -0.4001849286       -3.4650412205       -0.7882832596
 C          0.1595214011       -2.1059908905       -2.3396573396
 C          0.7057415117       -3.1536877604       -3.2602905494
 C         -0.7350249684       -2.7509405609       -3.3531226397
 H         -1.0570835485       -2.1658747711       -4.2012367998
 H         -1.4825351082       -3.4427470312       -2.9919324898
 H          1.3768325317       -2.8465840002       -4.0473521093
 H          0.9341737720       -4.1213571002       -2.8398713693
 H          0.4495895608       -1.0783075704       -2.5124803797
