  62
        -98.94092234
 C          2.2886564150       -0.5110493995       -0.1569819986
 C          3.5580854669       -1.0417626896       -0.4893788880
 C          4.6491093888       -0.0668010594       -0.6155943787
 C          4.3853426086        1.2406483083       -0.4368149642
 C          5.4117262428        2.3347990351       -0.4804159974
 C          5.9953385667        2.6035140448        0.9138569442
 C          6.4537405860        1.3417279858        1.6451731084
 H          6.8748751442        1.6559105383        2.6026500388
 H          5.5817644527        0.7217579852        1.8662728335
 C          7.4893709053        0.5056838086        0.8803096847
 H          7.9504637407        1.1114247825        0.0994553263
 H          8.2810667959        0.2109969817        1.5722570424
 C          6.9355613255       -0.7800696300        0.2636369794
 H          6.3908526893       -1.3456771610        1.0237799625
 H          7.7806350994       -1.3941811039       -0.0585179687
 C          6.0158231134       -0.5954156096       -0.9499611100
 H          6.5051162065        0.0415700079       -1.6894168751
 H          5.8539815530       -1.5805932237       -1.3969880410
 H          5.2293819847        3.0918532483        1.5208661828
 H          6.8360225877        3.2917345171        0.8092142536
 H          4.9295100088        3.2436306962       -0.8441865984
 H          6.2053907128        2.0543923172       -1.1701158779
 O          3.1466212510        1.7157127116       -0.1455282607
 C          2.0691932986        0.8557727256        0.0112473471
 O          0.9953971513        1.4240978256        0.2895428117
 O          3.7664856984       -2.2707331019       -0.6761359824
 C          1.1190290431       -1.4624974461        0.0170997955
 C          0.0060252762       -1.0969628428       -0.9329700148
 C          0.3010424791       -0.9635901543       -2.2878921809
 C         -0.6820282636       -0.6172265622       -3.1932103675
 C         -1.9792395751       -0.3925174019       -2.7662305324
 C         -2.2884885898       -0.5370388068       -1.4195183711
 C         -1.2995615801       -0.8978490584       -0.5137102931
 H         -1.5632646896       -0.9960737656        0.5250341751
 N         -3.6142118106       -0.3646245394       -0.9759220109
 S         -3.9229306807        0.4671781286        0.4615304237
 O         -3.4006927169        1.8140504554        0.3893034917
 O         -3.4922656191       -0.3351980772        1.5773226516
 C         -5.7062271799        0.5011070683        0.4085033083
 C         -6.3958105195       -0.6532948568        0.7280729782
 C         -7.7802591969       -0.6442197128        0.6710340948
 C         -8.4490173583        0.5123844956        0.2978536633
 C         -7.7437677835        1.6635445787       -0.0184488590
 C         -6.3585249209        1.6605251572        0.0350564466
 H         -5.7683760394        2.5333977585       -0.1942354699
 H         -8.2660422661        2.5620614016       -0.3052444948
 H         -9.5267540968        0.5175027919        0.2559488937
 H         -8.3322279177       -1.5366075194        0.9184079288
 H         -5.8340944666       -1.5246185954        1.0212719815
 H         -4.2071145554        0.0071798851       -1.7073043674
 H         -2.7459194740       -0.1097720398       -3.4719486196
 H         -0.4367534520       -0.5114098032       -4.2394512818
 H          1.3180950570       -1.1272901968       -2.6182914700
 H          1.5032375919       -2.4535376341       -0.2683754388
 C          0.6891079333       -1.5082060248        1.4679085034
 C          0.0334883847       -2.7366129916        2.0216076478
 C          1.4348185507       -2.3894396193        2.4229184380
 H          1.6126788220       -2.0290686790        3.4251041674
 H          2.2437485513       -2.9816064888        2.0203048661
 H         -0.7584535945       -2.6116128506        2.7447754966
 H         -0.1094944512       -3.5697603132        1.3502368908
 H          0.3543647459       -0.5431873425        1.8350470037
