  62
        -98.93751400
 C          1.9507860643        0.9154913012        0.0805202647
 C          2.2222985865       -0.0447658324        1.0797373149
 C          2.5650981568       -1.3987094414        0.6142458801
 C          2.5653688831       -1.6531460226       -0.7058731037
 C          2.9282343392       -2.9428977999       -1.3890111973
 C          4.4150357034       -2.9506354681       -1.7839791470
 C          5.3677307398       -3.4538285839       -0.7002005571
 H          5.2373712172       -4.5312945813       -0.5805308169
 H          6.3855513142       -3.2837806785       -1.0583116516
 C          5.2115037301       -2.7878694167        0.6693034752
 H          5.0814890373       -1.7115524808        0.5427894088
 H          6.1397474115       -2.9391218335        1.2235425992
 C          4.0455360692       -3.3600337724        1.4893968189
 H          4.4022206224       -3.6327406336        2.4847792706
 H          3.6983286184       -4.2812251670        1.0219775179
 C          2.8580624556       -2.4068354989        1.6920491495
 H          1.9500839534       -2.9938414004        1.8710633692
 H          3.0213316177       -1.8074382316        2.5936363848
 H          4.5395845981       -3.5842290454       -2.6643278970
 H          4.6884626079       -1.9323943710       -2.0719506907
 H          2.6810407795       -3.7931896014       -0.7603549149
 H          2.3241782599       -2.9913664373       -2.2974355096
 O          2.2748613837       -0.7031696214       -1.6370001338
 C          1.9544359869        0.5933199461       -1.2759324078
 O          1.7049540656        1.3492956761       -2.2346128940
 O          2.1889133837        0.2201793272        2.3145039061
 C          1.5760744875        2.3255466334        0.4910899556
 C          0.1962566480        2.6831100765       -0.0074576394
 C         -0.1472863154        3.9673388798       -0.4117588848
 C         -1.4355496945        4.2475371470       -0.8335373387
 C         -2.4042126055        3.2622098911       -0.8598276694
 C         -2.0694974849        1.9715554809       -0.4618005146
 C         -0.7829376125        1.6983049705       -0.0287251616
 H         -0.5383892403        0.6948192524        0.2897271795
 N         -3.0185886236        0.9390679318       -0.5277932839
 S         -2.8343417434       -0.4531677136        0.3973586065
 O         -2.6271735390       -0.1128235242        1.7881795686
 O         -1.8367385244       -1.2965625312       -0.2140888238
 C         -4.4506622588       -1.1750379694        0.1833119346
 C         -4.7067534541       -1.9073791895       -0.9604446718
 C         -5.9720047884       -2.4421640522       -1.1444682674
 C         -6.9550354308       -2.2363352559       -0.1877381381
 C         -6.6829108600       -1.5010289148        0.9560861782
 C         -5.4198509583       -0.9624871773        1.1455913165
 H         -5.1585646332       -0.3924056380        2.0225779926
 H         -7.4477738758       -1.3455099686        1.6996657678
 H         -7.9385159761       -2.6542623061       -0.3334149969
 H         -6.1858066822       -3.0168239829       -2.0311725672
 H         -3.9081486598       -2.0473629782       -1.6704939207
 H         -3.9738315842        1.2670834334       -0.5480689576
 H         -3.4063340158        3.4811153587       -1.1947606999
 H         -1.6885676819        5.2495106324       -1.1453095757
 H          0.5951379512        4.7484410181       -0.3981634969
 H          1.5434650768        2.3110734922        1.5920572466
 C          2.6435981785        3.3061276734        0.0476686035
 C          2.9608868785        4.5146859316        0.8754648925
 C          3.9271548645        3.3712780060        0.8183456891
 H          4.8505494461        3.4982891406        0.2736538060
 H          4.0149322988        2.7303704606        1.6837773004
 H          3.2247472231        5.4309917587        0.3691773022
 H          2.4018485593        4.6567808612        1.7880833357
 H          2.7020136345        3.3910418520       -1.0317736891
