  62
        -98.94581638
 C          1.5686589308        1.4377204205       -0.1908354179
 C          1.5569883808        0.0491479908       -0.4690161495
 C          2.8753764208       -0.5709918290       -0.6668093299
 C          3.9810855408        0.1922617109       -0.5959964988
 C          5.3855696108       -0.3216054791       -0.7231716290
 C          5.9651489405       -0.6969921206        0.6479083107
 C          5.0429222403       -1.5814733215        1.4872909995
 H          4.1482039702       -1.0134304617        1.7523029299
 H          5.5679433901       -1.8059649325        2.4184749994
 C          4.6262495504       -2.8924532207        0.8058788880
 H          4.7186522502       -3.7060010415        1.5285632371
 H          5.3060418705       -3.1131888798       -0.0179240321
 C          3.1846483305       -2.9120318601        0.2936139776
 H          2.5074712803       -2.5976565509        1.0917602878
 H          2.9316124105       -3.9436419698        0.0354472365
 C          2.9042602508       -2.0478611287       -0.9422025015
 H          1.9030183708       -2.3002836483       -1.3030409820
 H          3.6262511509       -2.2815835379       -1.7271301316
 H          6.1583248304        0.2225022988        1.2055812217
 H          6.9184390105       -1.2055843405        0.4925490203
 H          5.3917457309       -1.1882430883       -1.3812619800
 H          6.0012943709        0.4635539714       -1.1652203481
 O          3.9482539008        1.5273436806       -0.3470904173
 C          2.7459081108        2.1802942404       -0.1238893869
 O          2.8573221008        3.3987233601        0.1231666145
 H         -2.3847150793        1.3225748005        0.0342681811
 C         -1.8557235195        1.0667481194        0.9358378309
 C         -0.5332937095        1.4403320692        1.1098692416
 C          0.0936905102        1.1303649778        2.3146000014
 C         -0.5783389200        0.4391936368        3.3032276705
 C         -1.8862117400        0.0294019771        3.1084008798
 C         -2.5259789397        0.3490107684        1.9175934300
 N         -3.8525574697       -0.0390484613        1.6939683193
 S         -4.4196448494       -0.3347643996        0.1528381489
 O         -4.6781933292        0.9117164512       -0.5251540598
 O         -5.5772158095       -1.1795952898        0.3635342877
 C         -3.1586648892       -1.2535604687       -0.7110449519
 C         -2.7437887790       -0.8222927273       -1.9535014713
 C         -1.7917300488       -1.5596785366       -2.6368352019
 C         -1.2716914890       -2.7094825673       -2.0666807831
 C         -1.6983826093       -3.1301551186       -0.8178045136
 C         -2.6525798794       -2.3987266993       -0.1315096530
 H         -3.0045825796       -2.7049334804        0.8404857665
 H         -1.2832922694       -4.0209185691       -0.3740417045
 H         -0.5235935489       -3.2773318867       -2.5976501336
 H         -1.4506411786       -1.2289262756       -3.6054853715
 H         -3.1681891788        0.0837260631       -2.3577073204
 H         -4.2414840999       -0.6726943620        2.3756512585
 H         -2.4070215802       -0.5281462338        3.8717002291
 H         -0.0769393702        0.2038533457        4.2301517404
 H          1.1225635402        1.4323767176        2.4595306420
 C          0.2520997308        2.1572385103        0.0395110426
 H          0.5051907207        3.1639347699        0.4026908737
 C         -0.4992194690        2.2807515718       -1.2698697774
 C         -1.4704110289        3.4013666921       -1.4836614964
 C         -0.1590544187        3.3963520128       -2.2094279861
 H         -0.1556424485        3.1951920840       -3.2702020064
 H          0.6035938313        4.0942496224       -1.8952265352
 H         -1.6016537790        4.1091115512       -0.6788846957
 H         -2.3744936788        3.2039892527       -2.0406394268
 H         -0.7307649789        1.3142309923       -1.7040531286
 O          0.5058515808       -0.6354161390       -0.5446839904
