  62
        -98.94570887
 C          0.9672000971        1.1562781874       -0.2588569120
 C          2.0066100954        1.2195826535        0.7067366980
 C          2.8993249046        0.0576069435        0.7864184683
 C          2.6892952467       -0.9851596494       -0.0369439926
 C          3.5642867050       -2.2018265679       -0.1181354241
 C          4.6763758589       -2.0171300943       -1.1605134090
 C          5.4440658496       -0.7025899078       -1.0218852453
 H          6.2212572207       -0.6972131427       -1.7893471874
 H          4.7704366743        0.1287258502       -1.2422128135
 C          6.0845774540       -0.4834299034        0.3558484643
 H          6.1500685249       -1.4322150610        0.8895502468
 H          7.1048990858       -0.1207824409        0.2140103469
 C          5.3647472476        0.5428718700        1.2326434454
 H          5.2168566514        1.4670165293        0.6682003198
 H          6.0122665194        0.7789101068        2.0813568777
 C          4.0091001065        0.1018129166        1.7989366122
 H          4.1157171642       -0.8641796597        2.2960390304
 H          3.7052616097        0.8418726811        2.5447705738
 H          5.3706088745       -2.8553954896       -1.0773714393
 H          4.2264118266       -2.0458912443       -2.1555868453
 H          3.9996473790       -2.3958056976        0.8601093855
 H          2.9477592918       -3.0522237705       -0.4109643198
 O          1.6761984240       -1.0202154488       -0.9360323168
 C          0.7853622958        0.0357945335       -1.0699860018
 O         -0.0874969544       -0.1636898366       -1.9369675209
 H         -1.9874646927        0.6134556855       -0.8065975841
 C         -2.1336269476        1.1855331428        0.0960726367
 C         -1.1947730245        2.1347684067        0.4777872944
 C         -1.4051936240        2.8544890478        1.6488170959
 C         -2.5321347692        2.6326682424        2.4195453240
 C         -3.4617261124        1.6809851075        2.0432697752
 C         -3.2570326720        0.9510258703        0.8761660549
 N         -4.1821597881       -0.0244903100        0.4874469046
 S         -3.7789017622       -1.3064874487       -0.4943926398
 O         -3.6851172926       -0.8765974839       -1.8660216365
 O         -4.8179168562       -2.2820301302       -0.2247116023
 C         -2.2253980606       -1.9732555501        0.0785906203
 C         -1.4491663371       -2.6574195062       -0.8337088236
 C         -0.2824591061       -3.2669428438       -0.4019792403
 C          0.0925611510       -3.1738895356        0.9285802629
 C         -0.6935935807       -2.4769112817        1.8317980434
 C         -1.8696472319       -1.8784823780        1.4089131414
 H         -2.4943781090       -1.3383204292        2.1015103672
 H         -0.3945466974       -2.3971100660        2.8647599461
 H          1.0043416028       -3.6424398650        1.2647037611
 H          0.3316303756       -3.8004456437       -1.1099111990
 H         -1.7619280180       -2.6846968751       -1.8650036746
 H         -4.8880776158       -0.2624930490        1.1675641187
 H         -4.3395455455        1.4991523272        2.6441640548
 H         -2.6848815249        3.1998651059        3.3249515361
 H         -0.6682535920        3.5804381232        1.9589605268
 C          0.0502761591        2.3659279768       -0.3440454421
 H          0.6123474983        3.1827978079        0.1295131652
 C         -0.2915776019        2.7833848813       -1.7596018560
 C         -0.7104981090        4.1994466510       -2.0138667925
 C          0.6259310543        3.7157733231       -2.4896307948
 H          0.7767701571        3.5651685988       -3.5480784635
 H          1.5072954073        4.0603628294       -1.9682179641
 H         -1.4822769021        4.3832081119       -2.7455322742
 H         -0.7333650454        4.8739540632       -1.1712275379
 H         -0.7715389248        2.0058661710       -2.3395664272
 O          2.1830209203        2.2118655312        1.4630744219
