  62
        -98.94007832
 C         -2.6394468480       -1.1407652830        0.2659922372
 C         -2.5636447065       -0.2983793062       -0.8712109114
 C         -3.4041359818        0.9094586242       -0.8304588924
 C         -4.1712137889        1.1498386371        0.2473596391
 C         -5.0252240945        2.3687345385        0.4402055728
 C         -4.2506705709        3.4795858406        1.1635945720
 C         -2.8703333123        3.7600558999        0.5688210494
 H         -2.4302806832        4.5792034705        1.1419847341
 H         -2.2323508790        2.8855220436        0.7186230988
 C         -2.8832228279        4.1272394798       -0.9217441735
 H         -3.8868295398        4.4345324924       -1.2179385175
 H         -2.2231670941        4.9833232844       -1.0762105934
 C         -2.3977463275        3.0157249420       -1.8542470698
 H         -2.2399596947        3.4489041165       -2.8453670196
 H         -1.4331368968        2.6376800203       -1.5054089044
 C         -3.3486978748        1.8238699238       -2.0217706258
 H         -2.9738205279        1.2152834116       -2.8497681592
 H         -4.3469748585        2.1818068693       -2.2811576166
 H         -4.8508301289        4.3909154969        1.1396880683
 H         -4.1199152981        3.1867328095        2.2081291542
 H         -5.8914936046        2.0907118508        1.0429276931
 H         -5.3682187307        2.7227839544       -0.5299150404
 O         -4.2108905411        0.3233221604        1.3245794108
 C         -3.4302791271       -0.8206811652        1.3717338497
 O         -3.5213269700       -1.4572597751        2.4413369906
 O         -1.8365297214       -0.5270617848       -1.8705373747
 C         -1.7892240351       -2.3946718523        0.3814642579
 C         -0.3725974776       -2.0899115564       -0.0436561870
 C          0.3106833505       -2.7915204138       -1.0269833807
 C          1.6113515817       -2.4489679816       -1.3544975829
 C          2.2557613300       -1.4055713879       -0.7168133624
 C          1.5843673944       -0.7006009768        0.2739630050
 C          0.2870919852       -1.0546298266        0.6087739599
 H         -0.2364736278       -0.5050734943        1.3833276716
 N          2.2207697293        0.3766543545        0.9152340646
 S          3.7703826254        0.1484590665        1.5182362041
 O          3.9928331457       -1.2269594575        1.9004013877
 O          3.9155807613        1.1363966665        2.5654339167
 C          4.8301722616        0.5869915627        0.1569279111
 C          5.8004522021       -0.2960045537       -0.2745386966
 C          6.6202739398        0.0732206136       -1.3297829138
 C          6.4567788451        1.3121645571       -1.9301560277
 C          5.4791295508        2.1885063189       -1.4828351131
 C          4.6571036340        1.8261162863       -0.4278702486
 H          3.8875038379        2.4780788288       -0.0493296347
 H          5.3540234925        3.1507506488       -1.9527089167
 H          7.0946796960        1.5968342431       -2.7519357417
 H          7.3810164587       -0.6062090304       -1.6790397237
 H          5.8866215557       -1.2511005301        0.2186591268
 H          1.6402564493        0.8467610431        1.5943422191
 H          3.2646563676       -1.1307169090       -0.9776901673
 H          2.1281079901       -2.9982979718       -2.1266460208
 H         -0.1810863771       -3.5920458158       -1.5542620992
 H         -1.7682315786       -2.6235679734        1.4606836155
 C         -2.3781346583       -3.6183824663       -0.3044216682
 C         -3.8565845401       -3.7508019140       -0.5134297080
 C         -2.9473775601       -3.5659484034       -1.6890996443
 H         -2.7808805169       -4.4097447447       -2.3427602776
 H         -2.9418967780       -2.6133519677       -2.1938502387
 H         -4.3105731687       -4.7179592602       -0.3572169889
 H         -4.4816162942       -2.9226302515       -0.2116113129
 H         -1.8527960130       -4.5271602963       -0.0265930954
