  62
        -98.94486277
 C          2.1086675302        0.9976386185        0.4979125669
 C          2.1979498381        0.2278134990       -0.6877661987
 C          2.8839715649       -1.0642016187       -0.5566229353
 C          3.3210321543       -1.4728325908        0.6479039550
 C          4.0112860377       -2.7761824912        0.9462935660
 C          5.5211550075       -2.7631069750        0.6696882655
 C          5.9127008886       -2.7671423076       -0.8084952856
 H          6.9824995541       -2.9799137533       -0.8552979858
 H          5.3959137064       -3.5816448660       -1.3169356935
 C          5.6396824865       -1.4454136412       -1.5397862795
 H          5.4932642076       -0.6477963231       -0.8079546067
 H          6.5113750189       -1.1744663016       -2.1394530313
 C          4.4354222208       -1.4790597166       -2.4808531445
 H          4.3117009730       -0.4842645940       -2.9159465739
 H          4.6254254257       -2.1820109712       -3.2948324643
 C          3.1149548894       -1.8657884041       -1.8017199394
 H          3.1047888312       -2.9318682508       -1.5747460931
 H          2.2942048388       -1.6487835053       -2.4900368011
 H          5.9580154885       -1.8905005539        1.1606255535
 H          5.9440836765       -3.6547658568        1.1381070958
 H          3.5407327427       -3.5773327928        0.3751707397
 H          3.8571431411       -2.9725160840        2.0097361004
 O          3.1562591132       -0.7307683279        1.7765031268
 C          2.5567080961        0.5174913232        1.7276268741
 O          2.4718846495        1.0889255686        2.8355060351
 O          1.7344447809        0.5954644342       -1.7975050819
 C          1.4242873974        2.3548258736        0.4793299765
 C         -0.0320860120        2.1503867099        0.1383176074
 C         -0.6702820221        2.7420563523       -0.9423956915
 C         -1.9992292092        2.4588592867       -1.2101249092
 C         -2.7172245568        1.5898147121       -0.4092897374
 C         -2.0891175511        0.9988871234        0.6797135836
 C         -0.7617601415        1.2863044707        0.9469252937
 H         -0.2701460218        0.8183883348        1.7924840157
 N         -2.8159520135        0.1029068818        1.4985656014
 S         -3.2006747126       -1.3640599100        0.7612897090
 O         -3.4492340796       -2.2846078857        1.8501627308
 O         -2.1867531263       -1.7582053742       -0.1916404371
 C         -4.7322738994       -1.0177332670       -0.0755249682
 C         -4.7915928171       -1.0751306008       -1.4539799252
 C         -5.9936872905       -0.7912187858       -2.0836411589
 C         -7.1070146731       -0.4566087915       -1.3277748293
 C         -7.0306297212       -0.4058557692        0.0563779679
 C         -5.8327579632       -0.6898408983        0.6924340424
 H         -5.7283078613       -0.6676249310        1.7643174811
 H         -7.8986837202       -0.1457183106        0.6402823617
 H         -8.0400470766       -0.2341623029       -1.8209898282
 H         -6.0549464473       -0.8302453061       -3.1593148902
 H         -3.8970813616       -1.3324139394       -1.9985489280
 H         -2.3416323253       -0.0930692650        2.3700744718
 H         -3.7512631801        1.3674126969       -0.6160889055
 H         -2.4815317573        2.9202386765       -2.0581798029
 H         -0.1237566894        3.4129211639       -1.5841611352
 H          1.4804342078        2.7360767588        1.5092874610
 C          2.1455506387        3.3168625832       -0.4389566471
 C          2.0089602967        4.7937833362       -0.2263392800
 C          3.2993579453        4.1056589150        0.1002725929
 H          4.1523519932        4.2740177707       -0.5397510224
 H          3.5564381196        3.9629312027        1.1400977505
 H          1.9781439196        5.4391178628       -1.0909238023
 H          1.3900794308        5.1244085894        0.5939742639
 H          2.2241189013        2.9481958727       -1.4546133190
