  62
        -98.94383095
 C          1.5055913322        1.5778867568       -0.1648222892
 C          1.3866184937        0.2706220739        0.3707021531
 C          2.6498183722       -0.3623987913        0.7806299041
 C          3.8036897960        0.3234288562        0.7082726824
 C          5.1612685225       -0.1765438673        1.1222390695
 C          5.8793248458       -1.0018271050        0.0457856857
 C          5.3060351385       -2.3996059756       -0.1902985889
 H          6.0273527150       -2.9417569131       -0.8050661821
 H          5.2305011401       -2.9249634115        0.7622025875
 C          3.9441549418       -2.4125565562       -0.8984542853
 H          3.7713668587       -1.4431760152       -1.3717434996
 H          3.9566761299       -3.1585660861       -1.6963133184
 C          2.7585582557       -2.7394019117        0.0097703589
 H          2.8554123946       -3.7623166897        0.3798421966
 H          1.8455152204       -2.6772517338       -0.5866739339
 C          2.5996062227       -1.7973292682        1.2101543059
 H          3.3687924117       -2.0005190741        1.9547921969
 H          1.6177405068       -1.9719774650        1.6566823886
 H          6.9214226709       -1.1066764043        0.3567210746
 H          5.8683270409       -0.4398516272       -0.8911718156
 H          5.7653113899        0.7075035192        1.3380329279
 H          5.0714436536       -0.7667108786        2.0346869035
 O          3.8633168975        1.6064652989        0.2594450329
 C          2.7283418099        2.2527183765       -0.2031730914
 O          2.9326995028        3.4168577300       -0.6035500159
 O          0.3005549270       -0.3450081668        0.5088525084
 C          0.2934555243        2.3429028937       -0.6678944639
 C         -0.8398815299        2.2041147714        0.3171373660
 C         -0.6922878395        2.7601416962        1.5854141588
 C         -1.6919256341        2.6383195006        2.5305198239
 C         -2.8574559657        1.9543093194        2.2326878831
 C         -3.0146546047        1.3983659019        0.9688290719
 C         -2.0136470325        1.5325768769        0.0168219257
 H         -2.1577523708        1.0861299126       -0.9520402731
 N         -4.1912352035        0.7142697271        0.6374277587
 S         -4.2070626443       -0.5289425068       -0.4715560611
 O         -4.0670129168       -0.0052727259       -1.8083453320
 O         -5.4553917512       -1.2144508138       -0.2022762047
 C         -2.8540833006       -1.6242548394       -0.0867272296
 C         -2.6495632340       -2.0039995949        1.2234631503
 C         -1.6443022911       -2.9124298133        1.5070344828
 C         -0.8707455506       -3.4307765815        0.4815482076
 C         -1.0893791677       -3.0395029280       -0.8287069922
 C         -2.0887698606       -2.1259038801       -1.1174512182
 H         -2.2843415924       -1.7873587577       -2.1225747467
 H         -0.4824502132       -3.4378172303       -1.6271942562
 H         -0.0874172359       -4.1382255739        0.7052559541
 H         -1.4633753178       -3.2103108767        2.5276742191
 H         -3.2667894186       -1.5900393788        2.0044635040
 H         -4.8301916960        0.5520010526        1.4009434874
 H         -3.6380278317        1.8509042427        2.9709770135
 H         -1.5618723363        3.0727937718        3.5103345654
 H          0.2254508407        3.2821407047        1.8218526973
 H          0.6050795672        3.4005713483       -0.6790578592
 C         -0.1102295497        1.9927934363       -2.0922353190
 C          0.9171886892        1.6021488364       -3.1110989012
 C         -0.0712955117        0.5906679938       -2.6178178358
 H         -0.8630213819        0.2779070363       -3.2836984908
 H          0.2696039094       -0.1850721081       -1.9506664606
 H          0.8130948663        1.9803315499       -4.1170115913
 H          1.9423468320        1.5218299306       -2.7791361180
 H         -0.9238992706        2.6190848737       -2.4469343034
