  62
        -98.94037442
 C          2.0443170687        1.0722532294        0.4482569292
 C          2.7067148090        0.1240009698        1.2701635195
 C          4.1285583190       -0.0988461399        0.9928291095
 C          4.7308730288        0.5975841700        0.0121173193
 C          6.1799069488        0.5021321102       -0.3813775808
 C          6.4891413491       -0.6520007500       -1.3447252304
 C          6.4495131695       -2.0481236598       -0.7218957000
 H          6.8954716397       -2.7339848799       -1.4449712698
 H          7.0755214695       -2.0648516693        0.1708606800
 C          5.0400394797       -2.5474680101       -0.3741392597
 H          4.2979546395       -1.9467143905       -0.9053667599
 H          4.9225910499       -3.5770729202       -0.7198279694
 C          4.7111948697       -2.5314586597        1.1188213103
 H          5.3606784200       -3.2347768693        1.6448798605
 H          3.6785815798       -2.8674022899        1.2449113904
 C          4.8452693894       -1.1535777594        1.7801945898
 H          4.3834857594       -1.2016860992        2.7694838299
 H          5.8970435193       -0.8930489991        1.8972363797
 H          5.7878483290       -0.6067139105       -2.1811400104
 H          7.4924674790       -0.4840161598       -1.7429392105
 H          6.4299820485        1.4417751201       -0.8786402211
 H          6.7971221089        0.4067951307        0.5124242192
 O          4.0687161885        1.5100816095       -0.7437292410
 C          2.7094326584        1.7533769992       -0.5722145710
 O          2.2487186182        2.5851592488       -1.3742486113
 O          2.1317762292       -0.4998443701        2.2027550397
 C          0.5674410086        1.2885248690        0.7265481793
 C         -0.2628117111        0.3499839385       -0.1102794804
 C         -0.1491150312        0.3312371581       -1.4973095004
 C         -0.9225412610       -0.5307163323       -2.2532582901
 C         -1.8227567207       -1.3891422324       -1.6452052898
 C         -1.9402906107       -1.3802685620       -0.2624263398
 C         -1.1647296209       -0.5120354915        0.4953126099
 H         -1.2516130708       -0.5189735812        1.5734462899
 N         -2.8756641704       -2.2372932921        0.3557978806
 S         -4.4801814105       -1.9514220426       -0.0452841394
 O         -5.2595676103       -2.5966314425        0.9861211508
 O         -4.7155435504       -2.3917874931       -1.3959832093
 C         -4.6351563510       -0.1784623026        0.0643845600
 C         -4.4439950513        0.5922656971       -1.0648030803
 C         -4.4627322216        1.9725410671       -0.9430963507
 C         -4.6689204917        2.5548662774        0.2977078291
 C         -4.8657731615        1.7666082677        1.4214998194
 C         -4.8419642411        0.3861068277        1.3075739898
 H         -4.9925681209       -0.2620575121        2.1562566100
 H         -5.0281957815        2.2231826980        2.3847413892
 H         -4.6727184720        3.6291447975        0.3896703788
 H         -4.3096464119        2.5890654168       -1.8140701309
 H         -4.2891190712        0.1021279868       -2.0118154801
 H         -2.7783180203       -2.2709679317        1.3610364406
 H         -2.4408371706       -2.0597969528       -2.2200972295
 H         -0.8237523611       -0.5351045327       -3.3283453101
 H          0.5495125386        1.0037372182       -1.9720378907
 H          0.4413467388        0.9893660493        1.7790465494
 C          0.1257422982        2.7412637589        0.6089913088
 C         -0.8981041020        3.2206784583       -0.3726161013
 C         -1.2424315719        3.1363263186        1.0816890688
 H         -1.3521102321        4.0493454288        1.6463760685
 H         -1.9073468616        2.3421452586        1.3877649290
 H         -0.7423899222        4.1917281482       -0.8167858516
 H         -1.3452168518        2.5020988179       -1.0411419710
 H          0.9339737880        3.4302355792        0.8293366085
