  62
        -98.93246708
 C          2.2378512512        1.2843684910       -0.4884622693
 C          3.1034598110        0.7390863610        0.4919556909
 C          3.7232869512       -0.5646676089        0.2033510710
 C          3.4241744316       -1.1872919789       -0.9516158491
 C          3.9071555719       -2.4983960988       -1.5374151491
 C          4.7090681017       -3.4811955888       -0.6888492289
 C          3.9092156214       -4.1625855189        0.4217195508
 H          3.2095148916       -4.8646005590       -0.0387668695
 H          4.6013645712       -4.7384630489        1.0397200210
 C          3.0977062410       -3.2314830191        1.3193326206
 H          2.3524761612       -2.7003717391        0.7223674004
 H          2.5507045108       -3.8508578992        2.0354866004
 C          3.9144216607       -2.2155990991        2.1150004909
 H          3.2325997904       -1.7146940292        2.8077377008
 H          4.6719165905       -2.7347223690        2.7056350212
 C          4.6069072209       -1.1261259289        1.2803816613
 H          4.8420643606       -0.2902591190        1.9458509514
 H          5.5438671110       -1.4853066988        0.8617933315
 H          5.5909276615       -2.9931005188       -0.2845796386
 H          5.0624316020       -4.2626342387       -1.3670544188
 H          3.0126208920       -2.9996881688       -1.9216348794
 H          4.5056582921       -2.2257534287       -2.4137483889
 O          2.5832469918       -0.6264390589       -1.8681571194
 C          1.9565896617        0.5990506611       -1.6696777795
 O          1.2232558920        0.9342978411       -2.6172810297
 H         -0.3188609888        0.6905475908       -0.2514240002
 C         -0.4629399291        1.3583802807        0.5860185898
 C          0.4321547307        2.3953135108        0.8054389702
 C          0.2330188103        3.2319056307        1.8978171702
 C         -0.8478552800        3.0425873405        2.7401947898
 C         -1.7524236398        2.0238766905        2.5038332694
 C         -1.5528661494        1.1705891306        1.4235030394
 N         -2.4317440492        0.1027769705        1.1845929891
 S         -2.6901893887       -0.3862203494       -0.4116319711
 O         -1.6590273385       -1.3241029393       -0.7791847408
 O         -2.8609399085        0.7731446406       -1.2565004810
 C         -4.2457299486       -1.2400029995       -0.2304314916
 C         -5.4210248886       -0.5488944796       -0.4582681520
 C         -6.6296635586       -1.2047939497       -0.2851134124
 C         -6.6428978987       -2.5330157698        0.1136278175
 C         -5.4554893587       -3.2139496297        0.3375269078
 C         -4.2434948787       -2.5639979396        0.1655190383
 H         -3.2954633187       -3.0530609295        0.3185712085
 H         -5.4691752187       -4.2473389697        0.6442429477
 H         -7.5844284087       -3.0416252998        0.2476982871
 H         -7.5538230986       -0.6787135898       -0.4621083127
 H         -5.3604710586        0.4792026704       -0.7774239819
 H         -3.2952443794        0.1736337004        1.7053007988
 H         -2.5997913100        1.8778771203        3.1560780491
 H         -0.9915892603        3.6982742504        3.5853877098
 H          0.9407274202        4.0246741207        2.0905131404
 C          1.5936481910        2.6118642609       -0.1326333394
 H          2.3635560408        3.1669729709        0.4293202508
 C          1.2099096013        3.4621561610       -1.3333003395
 C         -0.1828028685        3.5365958509       -1.8752014200
 C          0.4009704512        4.7133563009       -1.1556997697
 H          0.6715053213        5.5855589810       -1.7312427395
 H          0.0235271108        4.9308641108       -0.1682213598
 H         -0.2963426581        3.5795083610       -2.9478018800
 H         -0.9541887286        2.9539391608       -1.3937743603
 H          2.0075807816        3.4978604211       -2.0685352292
 O          3.3625080006        1.3358686309        1.5724486110
