  62
        -98.93438201
 C         -2.4105579171       -0.9542254626        0.0637383672
 C         -2.6888162988        0.4314854394        0.0432805190
 C         -4.0842415572        0.8242799675        0.3160315182
 C         -5.0035754436       -0.1270796092        0.5655524671
 C         -6.4738494854       -0.0264795404        0.9158441192
 C         -7.2374583228        1.2801932720        0.7174571405
 C         -7.4212032070        1.6976728389       -0.7411180400
 H         -8.1104065314        0.9968652410       -1.2189027295
 H         -7.8868179417        2.6854468198       -0.7576953849
 C         -6.1472977896        1.7347636147       -1.5816616140
 H         -5.7256939761        0.7301267947       -1.6546959647
 H         -6.4235597102        2.0413410111       -2.5942365965
 C         -5.0645281286        2.6916521139       -1.0865243729
 H         -4.2890662449        2.7372580150       -1.8560101308
 H         -5.4826843814        3.6938225268       -0.9740194540
 C         -4.3812396135        2.2938823154        0.2334754138
 H         -3.4139084180        2.8027509450        0.2802038589
 H         -4.9622965551        2.6179373007        1.0935036353
 H         -8.2324184843        1.1260593378        1.1439067191
 H         -6.7715757617        2.0789869401        1.2867271209
 H         -6.9689535927       -0.8200812999        0.3473150034
 H         -6.5468465773       -0.3130602628        1.9707891535
 O         -4.6802848332       -1.4545974306        0.5854423836
 C         -3.3963479149       -1.9007245722        0.3328683216
 O         -3.2618464312       -3.1404792178        0.3825451448
 O         -1.8140835335        1.3079596176       -0.1837205221
 C         -1.0061360922       -1.4514833027       -0.2197910336
 C         -0.0178450371       -0.8455312322        0.7472865695
 C         -0.3272285984       -0.8175506915        2.1051066042
 C          0.5618947447       -0.2921334454        3.0219987357
 C          1.7889412169        0.1973049563        2.6094310411
 C          2.1099030200        0.1696022375        1.2582346164
 C          1.2078913793       -0.3464919175        0.3373503045
 H          1.4862354774       -0.3541257684       -0.7031243614
 N          3.3396584805        0.6708746696        0.8020452482
 S          4.0956507619       -0.1201897102       -0.4842214270
 O          3.5737425531        0.3946876006       -1.7249626312
 O          4.0144974423       -1.5516074479       -0.3005507832
 C          5.7763471631        0.4355124475       -0.2630543140
 C          6.6723233128       -0.3723728533        0.4115356471
 C          7.9687658910        0.0786133468        0.6038001095
 C          8.3445674726        1.3240569556        0.1233948539
 C          7.4344087214        2.1234705087       -0.5523449369
 C          6.1368530327        1.6782825165       -0.7489975855
 H          5.3983462598        2.2601165925       -1.2756172903
 H          7.7311803373        3.0898736239       -0.9268416927
 H          9.3540395887        1.6727839642        0.2739219593
 H          8.6794021136       -0.5419149969        1.1255811610
 H          6.3377859015       -1.3367273832        0.7588227363
 H          3.9864747602        0.8707641725        1.5526278006
 H          2.4868636986        0.6024901580        3.3263232130
 H          0.3026353409       -0.2724806807        4.0700308008
 H         -1.2806978418       -1.2124716408        2.4302842817
 H         -1.0254326506       -2.5378924955       -0.0429398112
 C         -0.6516125638       -1.2046593452       -1.6716308293
 C          0.3177080474       -2.1027886929       -2.3775061265
 C         -1.1410369009       -2.1608753812       -2.7156299100
 H         -1.4671909309       -1.7655631366       -3.6658753218
 H         -1.7113712470       -3.0136877440       -2.3764855982
 H          1.0001825570       -1.6636918354       -3.0904096174
 H          0.7452929748       -2.9187588000       -1.8137746095
 H         -0.6423431538       -0.1497029231       -1.9233496297
