  62
        -98.93341799
 C          2.5624637143        1.2880250081       -0.3778694706
 C          2.1363943187        0.0651880743       -0.9495907058
 C          3.0537189627       -1.0763534683       -0.7922298118
 C          4.2099256698       -0.9072157742       -0.1262746064
 C          5.2026867609       -1.9892123362        0.1903576476
 C          4.6916851255       -2.8410964798        1.3699582114
 C          4.3754144113       -4.2925004649        1.0087084572
 H          5.3118862251       -4.8443453966        0.9037890404
 H          3.8291130073       -4.7263019751        1.8490226079
 C          3.5636374680       -4.4993694072       -0.2735060089
 H          4.2209135423       -4.4200339031       -1.1406829698
 H          3.1962509698       -5.5275819719       -0.2538583489
 C          2.3709282064       -3.5553302062       -0.4746103860
 H          2.0132115805       -3.1727120413        0.4821302585
 H          1.5516761508       -4.1325790777       -0.9084083721
 C          2.6409261330       -2.3755778947       -1.4273014985
 H          1.7153764469       -2.1425391862       -1.9619065014
 H          3.3861056248       -2.6708227537       -2.1711972254
 H          3.7971762979       -2.3632257397        1.7760756101
 H          5.4356770195       -2.8416793855        2.1680097947
 H          5.3646377435       -2.6094863589       -0.6882991625
 H          6.1417240987       -1.5016863120        0.4527856489
 O          4.5797375390        0.2811992236        0.4178373894
 C          3.7701224417        1.3981330373        0.3155861202
 O          4.2294534328        2.4163791811        0.8701422671
 O          1.0518506718       -0.0800691218       -1.5735999481
 C          1.7018251206        2.5413070586       -0.4433148587
 C          0.5006627152        2.3238375003        0.4446633112
 C          0.6171674692        2.5542312673        1.8125996384
 C         -0.4385142018        2.2891778178        2.6647683353
 C         -1.6289030156        1.7814659822        2.1734233277
 C         -1.7501113188        1.5386282535        0.8122810645
 C         -0.6946472065        1.8225210306       -0.0452347250
 H         -0.7941941231        1.6119776513       -1.0980777736
 N         -2.9538171267        1.0157320786        0.2976619705
 S         -3.6158982014       -0.2997724437        1.1282212645
 O         -4.3417840591        0.2037328155        2.2684512773
 O         -2.5934900774       -1.2806819515        1.4183837402
 C         -4.7616198788       -0.9241021877       -0.0849495074
 C         -6.0336876197       -0.3873764544       -0.1417486229
 C         -6.9139440090       -0.8531261200       -1.1054054250
 C         -6.5092140863       -1.8404125696       -1.9914699048
 C         -5.2289023863       -2.3691115016       -1.9220725704
 C         -4.3429167713       -1.9070423167       -0.9614861366
 H         -3.3401476555       -2.2935645019       -0.8675942573
 H         -4.9169726625       -3.1376582349       -2.6109715190
 H         -7.1960447687       -2.2029407066       -2.7398901727
 H         -7.9105941280       -0.4462285880       -1.1620967881
 H         -6.3046984343        0.3719049420        0.5729219812
 H         -2.8596133072        0.7894262885       -0.6841773399
 H         -2.4538281505        1.5515185527        2.8283741825
 H         -0.3339906431        2.4728775885        3.7238296082
 H          1.5553045976        2.9267521438        2.2009616892
 H          2.3079769307        3.3432225582       -0.0018058251
 C          1.3539576516        2.9228835065       -1.8668744421
 C          0.8052643663        4.2895613404       -2.1426214239
 C          2.1956143754        3.9382205228       -2.5771416406
 H          2.3883679713        3.8000593445       -3.6304642630
 H          3.0256885859        4.3670684480       -2.0348453367
 H          0.0421636770        4.3972810162       -2.8980389367
 H          0.6902884617        4.9573630660       -1.3022712728
 H          0.9791282922        2.0961664232       -2.4563930901
