  62
        -98.94164719
 C         -2.3170603074       -0.7735147828        0.2194184674
 C         -1.5796424559       -0.0299018728       -0.7306712915
 C         -1.8490618100        1.4193730713       -0.7891951268
 C         -2.7162201365        1.9657229606        0.0793049137
 C         -3.2163576726        3.3872191473        0.1756763297
 C         -2.2359227840        4.5279232340       -0.1092451885
 C         -0.8186891289        4.3099719441        0.4395507479
 H         -0.5262870235        5.1801457760        1.0305813103
 H         -0.7988834145        3.4440944771        1.1051554455
 C          0.2241628602        4.1095523749       -0.6611618460
 H          1.2139475809        4.3150913378       -0.2457517662
 H          0.0435264505        4.8300441130       -1.4623611416
 C          0.2652377067        2.6979403189       -1.2408472362
 H          1.0246852720        2.6743771432       -2.0265967214
 H          0.5853820234        2.0054342913       -0.4582891154
 C         -1.0647355325        2.1829710382       -1.8186193624
 H         -1.6483128703        2.9941029874       -2.2481162982
 H         -0.8338588418        1.4656965511       -2.6108521884
 H         -2.6660581524        5.4259184318        0.3383453189
 H         -2.1821778548        4.7069471861       -1.1819322130
 H         -4.0768316179        3.4820780265       -0.4946858645
 H         -3.5964621072        3.4831798264        1.1963190344
 O         -3.3472833127        1.2212701088        1.0342560517
 C         -3.1571959629       -0.1440292726        1.1380317750
 O         -3.7841582378       -0.6792046617        2.0759650454
 H         -0.2177963631       -1.1939988767        1.8226560429
 C          0.1778480470       -1.9482126650        1.1568827296
 C         -0.6813419701       -2.6321885578        0.3049230141
 C         -0.1464041886       -3.5952413974       -0.5408704383
 C          1.2144550544       -3.8506173080       -0.5412271802
 C          2.0705371927       -3.1356401870        0.2757399512
 C          1.5440246961       -2.1675304252        1.1233465730
 N          2.3729898459       -1.3766567312        1.9491049486
 S          2.4310425158        0.2604611956        1.5866069872
 O          3.3454100355        0.8301344458        2.5538711504
 O          1.0984205154        0.8056569856        1.5747710176
 C          3.1801223311        0.3288961712       -0.0325412250
 C          2.4511618597       -0.0491609335       -1.1427345417
 C          3.0802728646       -0.0504384660       -2.3791188113
 C          4.4119058900        0.3184660785       -2.4855526841
 C          5.1291269184        0.6929913263       -1.3590888743
 C          4.5105085084        0.6934283939       -0.1199576162
 H          5.0254538199        0.9765810782        0.7839579566
 H          6.1647014160        0.9813318204       -1.4416950567
 H          4.8923419565        0.3144781264       -3.4513229621
 H          2.5156187766       -0.3430850698       -3.2497710889
 H          1.4118477918       -0.3249147785       -1.0494450289
 H          3.3190932863       -1.7260148698        2.0250262031
 H          3.1351756331       -3.3146106168        0.2549914137
 H          1.6157790459       -4.6020444068       -1.2039098316
 H         -0.7903622962       -4.1326370264       -1.2172522831
 C         -2.1465747557       -2.2763532126        0.3672821368
 H         -2.5007996133       -2.5012460468        1.3877306414
 C         -3.0095122820       -3.0937579207       -0.5834563247
 C         -4.2814537455       -2.5360475552       -1.1472579974
 C         -3.1052812749       -2.7730913887       -2.0436877820
 H         -3.1561349504       -3.5913098895       -2.7469614760
 H         -2.5512742032       -1.9200284536       -2.4013478376
 H         -4.5383464147       -1.5175575261       -0.8933663517
 H         -5.1349340950       -3.1924725983       -1.2284535108
 H         -3.0314555265       -4.1440909780       -0.3097740532
 O         -0.7487091484       -0.5446963784       -1.5232982511
