  62
        -98.94874239
 C         -2.0529319281       -1.0109321991       -0.1817505630
 C         -1.1831255258       -1.7493164023       -1.0173549367
 C         -0.2728872957       -2.6752916890       -0.3378739909
 C         -0.3015414926       -2.7709282485        1.0040545317
 C          0.5719014690       -3.6637428075        1.8432513104
 C          1.9544342367       -3.0650442864        2.1384930038
 C          2.9325663071       -3.0804774746        0.9626809480
 H          3.9231932214       -2.8660957301        1.3684359638
 H          2.9650938709       -4.0808379601        0.5290406284
 C          2.6165205775       -2.0479106193       -0.1282280690
 H          3.5358193688       -1.5341330264       -0.4200887201
 H          1.9466005686       -1.2878324614        0.2816191105
 C          2.0017085414       -2.6295064375       -1.4011311516
 H          2.7302832261       -3.2752517010       -1.8964012316
 H          1.7709569813       -1.8004674565       -2.0746092351
 C          0.7142512432       -3.4320452097       -1.1756906830
 H          0.2501584951       -3.6131792852       -2.1485747885
 H          0.9448563276       -4.3917233207       -0.7137043001
 H          1.8200299460       -2.0358201173        2.4825533225
 H          2.3916574030       -3.6393251231        2.9590253278
 H          0.0487800281       -3.8084049903        2.7910467953
 H          0.6870951853       -4.6332292514        1.3569998472
 O         -1.1675166016       -2.0597514291        1.7725487091
 C         -2.0270648103       -1.1309845952        1.2081865850
 O         -2.7223265068       -0.5049004160        2.0326826720
 H         -0.4691718587        0.8675796027       -0.4296124581
 C         -1.1668163922        1.6565932501       -0.1934152869
 C         -2.5275015574        1.4084396661       -0.3255174658
 C         -3.4197081765        2.4254543933       -0.0145486179
 C         -2.9525524972        3.6432757020        0.4510783409
 C         -1.6000304885        3.8649928301        0.6303455491
 C         -0.6960770385        2.8572785924        0.3078048694
 N          0.6856686224        3.0546272486        0.4624065589
 S          1.7238602665        1.8628971655        1.0271597456
 O          1.0131251310        0.6763286392        1.4368718145
 O          2.5342596032        2.5036547356        2.0434660129
 C          2.7708030831        1.4994882251       -0.3713514216
 C          2.2187980274        1.2951214323       -1.6199228680
 C          3.0543971110        0.9774561526       -2.6794930893
 C          4.4215222232        0.8696873079       -2.4771677225
 C          4.9628582275        1.0835226829       -1.2190950894
 C          4.1319173136        1.3999896550       -0.1561459895
 H          4.5088660282        1.5768841982        0.8379294586
 H          6.0263405326        1.0023172342       -1.0618060407
 H          5.0658266236        0.6188201796       -3.3048045149
 H          2.6303871648        0.8123272952       -3.6572666013
 H          1.1530024168        1.3814515899       -1.7576352452
 H          0.9308433004        3.9425144790        0.8757737143
 H         -1.2417032523        4.8057195523        1.0204013557
 H         -3.6548769494        4.4256492478        0.6961848304
 H         -4.4794711218        2.2617940719       -0.1226876740
 C         -2.9500502483        0.0410210867       -0.8079917259
 H         -2.7571411951       -0.0174480848       -1.8904529923
 C         -4.4117309871       -0.2620227376       -0.5574884915
 C         -5.4517737676        0.1405969695       -1.5591149067
 C         -5.0878337064       -1.3035764986       -1.3964645214
 H         -5.7954538213       -1.9670588946       -0.9226145712
 H         -4.4986910867       -1.7743689366       -2.1699221386
 H         -5.1175973253        0.6478908728       -2.4514765228
 H         -6.4150979385        0.4680188907       -1.1980911762
 H         -4.6680782571       -0.2230265275        0.4952575643
 O         -1.1636130717       -1.6316589048       -2.2736856385
