  62
        -98.92985723
 C         -1.6461671969       -0.0325274452       -0.5943506552
 C         -2.8083978552        0.7738890128       -0.5929325370
 C         -4.0660140912        0.1168693624       -0.1711925913
 C         -4.0495647949       -1.1812722285        0.1762561495
 C         -5.1882168514       -2.0535818132        0.6419416454
 C         -6.5130438324       -1.9274658125       -0.1259004484
 C         -7.6211187668       -1.2483090132        0.6808170673
 H         -8.5877403254       -1.5649570701        0.2825916029
 H         -7.5639475895       -1.5991789849        1.7133795686
 C         -7.5930530935        0.2790792854        0.6644201733
 H         -7.9017633207        0.6356051979       -0.3207674530
 H         -8.3360135677        0.6310690195        1.3841091524
 C         -6.2423297748        0.9122130869        1.0045236881
 H         -5.7654005593        0.3774000404        1.8250519171
 H         -6.4298474887        1.9296822301        1.3544005097
 C         -5.2846943440        0.9992117855       -0.1933916555
 H         -5.8328899416        0.8199589743       -1.1228861628
 H         -4.8870973168        2.0159837446       -0.2722982075
 H         -6.3493160617       -1.3996942393       -1.0641584775
 H         -6.8493613538       -2.9348004866       -0.3769118472
 H         -4.8101947773       -3.0754623081        0.5638856277
 H         -5.3568228338       -1.8653130086        1.7051666761
 O         -2.9007579528       -1.9174216901        0.1710155266
 C         -1.6891347287       -1.3731581597       -0.2043602047
 O         -0.7325540865       -2.1727945189       -0.1613814220
 H          2.2614919186        0.0032708978       -0.2600454879
 C          1.7903539862        0.7329725510        0.3795817431
 C          0.4668228839        1.0823782760        0.1575297820
 C         -0.1355125356        2.0031916770        1.0084513481
 C          0.5814686810        2.5630754295        2.0501865620
 C          1.9107750790        2.2341241808        2.2500955924
 C          2.5213454611        1.3135888199        1.4064869990
 N          3.8614638794        0.9499211856        1.5859974962
 S          4.8311342156        0.6065895229        0.2665245777
 O          6.1803839239        0.8010888376        0.7513777616
 O          4.4502179053        1.3851577099       -0.8880771072
 C          4.5657463328       -1.1273563947       -0.0324633047
 C          4.2094657528       -1.5614408237       -1.2935442593
 C          4.0146586610       -2.9170242556       -1.5058281571
 C          4.1811726497       -3.8098214486       -0.4587908512
 C          4.5440943069       -3.3582358325        0.8011214419
 C          4.7400692194       -2.0044570103        1.0195425009
 H          5.0239944633       -1.6161058145        1.9834033332
 H          4.6711730951       -4.0569770445        1.6122868806
 H          4.0245046363       -4.8636903293       -0.6264289458
 H          3.7298480173       -3.2696810549       -2.4842092350
 H          4.0835402511       -0.8332604582       -2.0799309618
 H          4.3538034687        1.4570890072        2.3063062127
 H          2.4722767250        2.6845048568        3.0545057608
 H          0.1039420276        3.2755032295        2.7060879552
 H         -1.1639221741        2.2828944743        0.8384181500
 C         -0.2736668506        0.4727691680       -1.0044803485
 H          0.2828510241       -0.4294273293       -1.3058883372
 C         -0.3056500802        1.3979169219       -2.2141310308
 C         -0.0625369987        2.8718763940       -2.1400656717
 C          0.9707258461        1.9765276974       -2.7513813472
 H          1.1124839955        2.0061862895       -3.8215088790
 H          1.8806828634        1.8058933078       -2.1930310037
 H         -0.6507938420        3.5082636424       -2.7834181541
 H          0.1471544310        3.3072737436       -1.1759310752
 H         -1.0349164960        1.0712130573       -2.9489347256
 O         -2.8239061424        1.9885324150       -0.9184082917
