  62
        -98.94165004
 C         -1.7059908651       -0.4744873141       -0.2678319979
 C         -2.8206770281       -1.2841147032        0.0725107519
 C         -4.1425140193       -0.7669339201       -0.3038088515
 C         -4.2282122138        0.4256225647       -0.9200481836
 C         -5.5111781415        1.0966084907       -1.3151725077
 C         -6.0259637337        2.0145282626       -0.1976600148
 C         -6.0623435420        1.3512057817        1.1791503111
 H         -5.0396369470        1.1367214452        1.4977095987
 H         -6.4705586771        2.0817191875        1.8809447691
 C         -6.8935303038        0.0620876480        1.2414474030
 H         -7.5144918187        0.0891144977        2.1393575750
 H         -7.5662200670        0.0133125383        0.3843969302
 C         -6.0665480091       -1.2230690110        1.3103022459
 H         -6.7380119265       -2.0457607173        1.5699905055
 H         -5.3265879072       -1.1401749478        2.1102282942
 C         -5.3381254647       -1.6183402970        0.0195953522
 H         -4.9553790642       -2.6344228324        0.1530457202
 H         -6.0434620640       -1.6236471306       -0.8140206466
 H         -7.0273255934        2.3562829628       -0.4659711895
 H         -5.3727682665        2.8883649475       -0.1396069659
 H         -6.2552597748        0.3371086627       -1.5477198820
 H         -5.3250143675        1.6956621954       -2.2082579582
 O         -3.1427540113        1.1852640574       -1.2101743321
 C         -1.8556709911        0.7685908665       -0.8848193337
 O         -0.9730327937        1.5891599294       -1.1953361581
 O         -2.7135134252       -2.3886654755        0.6683916821
 C         -0.3298738295       -0.9922604142        0.1113728984
 C          0.4858670846        0.0913620923        0.7674397965
 C          0.0922070539        0.5655200794        2.0165515989
 C          0.8050780985        1.5639971226        2.6504150976
 C          1.9404109110        2.0952959178        2.0632986533
 C          2.3400769897        1.6309722702        0.8165367082
 C          1.6137057329        0.6360584326        0.1755883598
 H          1.9162420202        0.3300700752       -0.8110793722
 N          3.4851008673        2.1467050443        0.1963723645
 S          4.4398266872        1.1729381490       -0.7611546982
 O          5.7483405914        1.7912121423       -0.7065881306
 O          3.8744755360        1.0280005659       -2.0786579607
 C          4.4836841839       -0.4121064130        0.0598424325
 C          4.1610637898       -1.5524059216       -0.6466872921
 C          4.1949713555       -2.7772951329        0.0009247865
 C          4.5469977597       -2.8395667483        1.3400343177
 C          4.8750400207       -1.6857185252        2.0353226975
 C          4.8460144433       -0.4594462148        1.3915613942
 H          5.1028302814        0.4529442525        1.9043394387
 H          5.1507920346       -1.7383384429        3.0761458383
 H          4.5663289175       -3.7931882433        1.8435119420
 H          3.9423199060       -3.6757498523       -0.5397002930
 H          3.8851214503       -1.4570924018       -1.6849048533
 H          4.0229868199        2.7993090345        0.7459582613
 H          2.5020358818        2.8735132947        2.5571314530
 H          0.4817628429        1.9277829876        3.6140586532
 H         -0.7919102931        0.1469460007        2.4779849311
 H         -0.5327077580       -1.7679130042        0.8688298809
 C          0.4137918865       -1.6824943204       -1.0218898513
 C         -0.3206689028       -2.4267938842       -2.0951082046
 C          0.4078763520       -1.1602618598       -2.4259311034
 H          1.3210301628       -1.2188827130       -3.0011311384
 H         -0.1668951918       -0.2696772537       -2.6278302042
 H          0.0880065785       -3.3633475549       -2.4431755746
 H         -1.4004696409       -2.4018441189       -2.0733921768
 H          1.3416586360       -2.1281286966       -0.6753325617
