  62
        -98.93890778
 C          2.2000511499        1.0684717593        0.4650328103
 C          2.2881519898        0.1888112398       -0.6386663201
 C          3.0888479995       -1.0335765205       -0.4369185505
 C          3.6565064193       -1.2545990512        0.7615830495
 C          4.5448330190       -2.4009216216        1.1598861890
 C          6.0263228191       -2.0375450619        0.9612717394
 C          6.5777414692       -2.3215189114       -0.4352256807
 H          7.5865909993       -1.9047627717       -0.4769108704
 H          6.6630423189       -3.4012396614       -0.5743833412
 C          5.7587489394       -1.7428032107       -1.5918322105
 H          5.4448667497       -0.7262030807       -1.3483674101
 H          6.4105142796       -1.6798866605       -2.4652583504
 C          4.5319413493       -2.5953520702       -1.9489803810
 H          4.5316260593       -2.7987223197       -3.0218436111
 H          4.6112679390       -3.5620903205       -1.4520438715
 C          3.1741865094       -1.9568071000       -1.6216605009
 H          2.4252059392       -2.7475822799       -1.5002009013
 H          2.8431833196       -1.3485531895       -2.4696203607
 H          6.1450641993       -0.9767029920        1.1958501899
 H          6.6236484389       -2.6003092724        1.6813816392
 H          4.2824337488       -3.3006226413        0.6111645886
 H          4.3689565188       -2.5745375020        2.2237022789
 O          3.5243173294       -0.3904946216        1.8065304998
 C          2.7983187097        0.7809777786        1.6903754103
 O          2.7511537598        1.4657623782        2.7328590406
 O          1.7304512500        0.4123606104       -1.7450069900
 C          1.3982294903        2.3520323896        0.3487911608
 C         -0.0329772897        2.0388580701       -0.0178537895
 C         -0.7440198395        2.7357277007       -0.9857315393
 C         -2.0534738395        2.3927111112       -1.2757633596
 C         -2.6831917299        1.3588630211       -0.6079986401
 C         -1.9824185101        0.6569591305        0.3641408297
 C         -0.6731280501        1.0060030400        0.6558234200
 H         -0.1282460703        0.4552490795        1.4140452598
 N         -2.6149135405       -0.3881977897        1.0610315191
 S         -3.4056647807       -1.5736675891        0.1702236585
 O         -3.3906857111       -2.7487106795        1.0151065180
 O         -2.8365687006       -1.7222468687       -1.1487580415
 C         -5.0756199405       -0.9657853586        0.0553912386
 C         -5.7506944706       -0.6961853490        1.2298406387
 C         -7.0519856805       -0.2252569686        1.1606197887
 C         -7.6536452603       -0.0351233879       -0.0746121213
 C         -6.9637826602       -0.3139933075       -1.2444442813
 C         -5.6613143404       -0.7849973379       -1.1821562114
 H         -5.0841283203       -1.0111538677       -2.0647380714
 H         -7.4332341801       -0.1664433370       -2.2037410113
 H         -8.6665276302        0.3319562724       -0.1257026512
 H         -7.5916430205       -0.0080668789        2.0682831788
 H         -5.2480546207       -0.8618557195        2.1680683986
 H         -2.0292453307       -0.8129692002        1.7656737590
 H         -3.6999768299        1.0844245114       -0.8362665903
 H         -2.5914847193        2.9390323117       -2.0353217894
 H         -0.2699689592        3.5415322408       -1.5213693889
 H          1.4004700203        2.8028781691        1.3523992610
 C          2.0747893406        3.3052248598       -0.6145541587
 C          1.9305002610        4.7864184798       -0.4398996481
 C          3.2351259808        4.1187478493       -0.1283755882
 H          4.0701259409        4.2763359094       -0.7944069181
 H          3.5195383207        4.0043432888        0.9078101018
 H          1.8727826413        5.4063838102       -1.3218108878
 H          1.3315446410        5.1364017596        0.3870966420
 H          2.1281058007        2.9080229203       -1.6217382089
