  62
        -98.94396475
 C         -1.8090579340       -1.1690426416        0.3761581972
 C         -2.0307841490       -0.2301169438       -0.6598451125
 C         -3.4317631253       -0.0495237675       -1.0630186753
 C         -4.3982374415       -0.7788342894       -0.4763544205
 C         -5.8675042983       -0.7237136178       -0.7965600328
 C         -6.6219878442        0.3997688006       -0.0725061306
 C         -6.3378089146        1.8113170346       -0.5875817035
 H         -6.4798576728        1.8383971416       -1.6683576694
 H         -7.0861835200        2.4710900630       -0.1440870144
 C         -4.9412769047        2.3441641210       -0.2370797631
 H         -5.0242515976        3.3664675785        0.1386743181
 H         -4.5118662894        1.7425184401        0.5673306892
 C         -3.9600290256        2.3717940843       -1.4092376765
 H         -4.3112169370        3.0779407059       -2.1651430017
 H         -2.9936355013        2.7266690227       -1.0404774209
 C         -3.7377269397        1.0091799769       -2.0786600886
 H         -2.8740787867        1.0917100282       -2.7433417437
 H         -4.6104510425        0.7327056746       -2.6700718047
 H         -7.6900927190        0.2022893282       -0.1884987060
 H         -6.3880932584        0.3472553730        0.9932887923
 H         -6.0042531468       -0.6204627974       -1.8732738924
 H         -6.2901223247       -1.6802460615       -0.4817665465
 O         -4.1379719344       -1.6933221494        0.4956905716
 C         -2.8481792927       -1.8917102071        0.9621454672
 O         -2.7578035051       -2.7262180962        1.8854184129
 O         -1.1119825249        0.4216954296       -1.2210642921
 C         -0.4022365328       -1.4108218891        0.8924107916
 C          0.1991165171       -0.1183500941        1.3887221499
 C         -0.5353667753        0.6629424934        2.2778952855
 C         -0.0209451741        1.8448744970        2.7724057855
 C          1.2379754763        2.2747140237        2.3898472964
 C          1.9835491788        1.5007908659        1.5101328858
 C          1.4660860847        0.3075712030        1.0222102502
 H          2.0606937678       -0.2772691137        0.3414196988
 N          3.2813235615        1.8871897293        1.1412038000
 S          3.7797876397        1.7675911611       -0.4550350608
 O          4.9297719527        2.6456203318       -0.5287458836
 O          2.7097826131        2.0488495800       -1.3814530615
 C          4.3414080016        0.0882386059       -0.6332194544
 C          3.9061786619       -0.6618550599       -1.7074249913
 C          4.3884051833       -1.9524728603       -1.8622466123
 C          5.2922351808       -2.4663938269       -0.9444893546
 C          5.7182884450       -1.6993939455        0.1295383262
 C          5.2434854074       -0.4073681960        0.2876125150
 H          5.5557951032        0.2218580020        1.1039648078
 H          6.4193129724       -2.1044463351        0.8412687855
 H          5.6636948586       -3.4716385369       -1.0672411044
 H          4.0562310164       -2.5499480587       -2.6966925741
 H          3.1925442830       -0.2256520105       -2.3889952361
 H          3.5879928211        2.7601341291        1.5465729774
 H          1.6398498837        3.2017930982        2.7701399656
 H         -0.6050881266        2.4412014198        3.4573708515
 H         -1.5209424437        0.3283071549        2.5734078362
 H         -0.5106120615       -2.0852028129        1.7549234721
 C          0.4359866501       -2.1043529286       -0.1608365999
 C          1.5436144901       -3.0250254476        0.2525536899
 C          0.2864731125       -3.5840619165       -0.3411080273
 H          0.3207735195       -3.9866629436       -1.3421841410
 H         -0.4091650728       -4.0932429919        0.3102637630
 H          2.4457846241       -3.0459465341       -0.3395565295
 H          1.7065032392       -3.1618916400        1.3107924005
 H          0.5701020743       -1.5013625613       -1.0520986030
