  62
        -98.94434375
 C         -1.8437692784       -0.7738483394        0.2337981343
 C         -2.3531204750        0.5437722186        0.1433468935
 C         -3.7850117085        0.6958627367        0.4416661864
 C         -4.5056223343       -0.3853966200        0.7912927635
 C         -5.9816860053       -0.3814822449        1.0624278042
 C         -6.7808907875       -0.6743322415       -0.2151643856
 C         -6.3594112591        0.1729978398       -1.4157226697
 H         -5.3404566507       -0.0965949834       -1.7029430838
 H         -7.0103442418       -0.0981698580       -2.2497505049
 C         -6.4341235366        1.6881844371       -1.1809254131
 H         -6.9021535933        2.1548034931       -2.0503506037
 H         -7.0688870750        1.8990716639       -0.3195383769
 C         -5.0771223127        2.3678527694       -0.9878953023
 H         -4.4059628416        2.0856242093       -1.8031829686
 H         -5.2265404412        3.4492861353       -1.0480663337
 C         -4.3680952613        2.0771789213        0.3409405369
 H         -5.0497501254        2.2708204906        1.1716892965
 H         -3.5211855138        2.7650628527        0.4231088928
 H         -6.6450056700       -1.7266446735       -0.4750281703
 H         -7.8393597765       -0.5099540380       -0.0054530797
 H         -6.1982590924       -1.1553487742        1.8007133194
 H         -6.2686883214        0.5860768767        1.4694100827
 O         -3.9735925516       -1.6302622360        0.8922580693
 C         -2.6370820349       -1.8581438025        0.6080986314
 O         -2.2785840503       -3.0466722461        0.7316243023
 O         -1.6524498313        1.5415409627       -0.1700024107
 C         -0.3845700228       -1.0436281125       -0.0891552696
 C          0.5061167386       -0.1888184215        0.7779757573
 C          0.2799781730       -0.1704363211        2.1527629741
 C          1.0533237250        0.6116659823        2.9868578921
 C          2.0809652303        1.3821690658        2.4707473245
 C          2.3235856764        1.3617038291        1.1035356181
 C          1.5453484577        0.5716017536        0.2662378401
 H          1.7477406443        0.5891087153       -0.7913283489
 N          3.3558460081        2.1350646200        0.5537575244
 S          4.2749285902        1.5388400120       -0.7030445029
 O          5.5141133008        2.2833001654       -0.6275991573
 O          3.5610177362        1.6376708505       -1.9506687576
 C          4.5705884682       -0.1749879363       -0.3008425665
 C          5.0884368477       -0.4828614971        0.9420501617
 C          5.3177355717       -1.8107225961        1.2624582072
 C          5.0312448530       -2.8043182429        0.3385558955
 C          4.5200523785       -2.4786778039       -0.9076925202
 C          4.2855192206       -1.1517158995       -1.2317269190
 H          3.8833577642       -0.8556177450       -2.1867149243
 H          4.3010400439       -3.2513496381       -1.6274941367
 H          5.2085450573       -3.8379810877        0.5905986054
 H          5.7176042188       -2.0673230197        2.2301861329
 H          5.3108266019        0.3101651084        1.6370350578
 H          3.9123056465        2.6453942695        1.2230397662
 H          2.6806068644        2.0031853908        3.1186446863
 H          0.8573414666        0.6223316035        4.0484501611
 H         -0.5249893654       -0.7705052561        2.5553218649
 H         -0.2055067323       -2.0975708730        0.1695401849
 C         -0.1491287514       -0.8605036605       -1.5738496111
 C          0.9026918049       -1.6602769934       -2.2789255219
 C         -0.5470787411       -1.9624675796       -2.5077939233
 H         -0.9874910000       -1.7004610796       -3.4582597866
 H         -0.9605214655       -2.8579980977       -2.0666930276
 H          1.4576254674       -1.1856516119       -3.0744471026
 H          1.4780844010       -2.3567585264       -1.6883084499
 H         -0.3220851148        0.1585651069       -1.9021267531
