  62
        -98.94550490
 C          0.8142334689        1.2496755293       -0.1686938708
 C          1.6008117694        0.7795817897        0.9156544391
 C          2.5484362994       -0.3007616102        0.6212823490
 C          2.5934547491       -0.8069570005       -0.6238729008
 C          3.5720293091       -1.8450608705       -1.0922148209
 C          4.8418949788       -1.1912342704       -1.6558774915
 C          5.4478925990       -0.1263968001       -0.7413630220
 H          6.3545295687        0.2403865899       -1.2275905824
 H          4.7578403889        0.7176110098       -0.6715981620
 C          5.7888497495       -0.6205247697        0.6716093180
 H          6.7812218495       -0.2524782694        0.9404671176
 H          5.8345729797       -1.7100281897        0.6819011183
 C          4.8259037398       -0.1421801495        1.7599421282
 H          4.7105797196        0.9425639904        1.6948708980
 H          5.2738925002       -0.3656338692        2.7317362181
 C          3.4298222299       -0.7777386798        1.7407013789
 H          3.5234642101       -1.8649169098        1.7207346091
 H          2.9206600302       -0.4889517096        2.6643343790
 H          5.5788590289       -1.9743533804       -1.8437065515
 H          4.5948637084       -0.7218294607       -2.6110757115
 H          3.8318622095       -2.4979312002       -0.2608345308
 H          3.1014883890       -2.4360809308       -1.8801802206
 O          1.7741646187       -0.3874606909       -1.6190720907
 C          0.8712470586        0.6529903390       -1.4288583007
 O          0.2118317082        0.9245923586       -2.4508965405
 H         -1.7268407612        0.5250404787       -0.9437660098
 C         -2.1611020910        1.0046923088       -0.0795648398
 C         -1.4649785109        2.0019355291        0.5879668697
 C         -2.0622586507        2.6209982793        1.6805829698
 C         -3.3301866705        2.2551104392        2.0927945903
 C         -4.0159633905        1.2493401989        1.4368974008
 C         -3.4243293008        0.6186026987        0.3477985808
 N         -4.0905835308       -0.4195331216       -0.3171639287
 S         -3.2318660709       -1.6886350716       -0.9742358887
 O         -2.7259386913       -1.3406329919       -2.2768458589
 O         -4.1700577707       -2.7937709317       -0.9506083381
 C         -1.8871049604       -2.0495120811        0.1435403110
 C         -2.0913959700       -2.0021155407        1.5083076110
 C         -1.0511881096       -2.3503548203        2.3545647708
 C          0.1605408803       -2.7660163303        1.8268412505
 C          0.3439997498       -2.8274412306        0.4549624204
 C         -0.6839974505       -2.4549248710       -0.3960283593
 H         -0.5720513709       -2.4612168213       -1.4693595394
 H          1.2815805297       -3.1626935406        0.0428721702
 H          0.9665383805       -3.0443244100        2.4868385203
 H         -1.1902940593       -2.3008035701        3.4223278208
 H         -3.0467329899       -1.6938072308        1.9000001513
 H         -4.9508891207       -0.7269580616        0.1124434716
 H         -5.0009712504        0.9505413288        1.7611691712
 H         -3.7842775803        2.7466547794        2.9392639403
 H         -1.5202363206        3.3871935795        2.2137181094
 C         -0.0909521412        2.4301692192        0.1310687992
 H          0.3851708390        2.9498517295        0.9748275989
 C         -0.2249878617        3.4126322689       -1.0169498310
 C         -0.5107846318        4.8534885489       -0.7227232713
 C          0.8389855881        4.4453634490       -1.2305587617
 H          1.1135884077        4.6973130888       -2.2437655918
 H          1.6687536983        4.4572264493       -0.5386775219
 H         -0.5913262616        5.1506042092        0.3116097186
 H         -1.1690643422        5.3914722386       -1.3872900913
 H         -0.6796145119        2.9784105486       -1.8982375408
 O          1.5255210497        1.2637939400        2.0761867290
