  62
        -98.93899438
 C         -2.3421727323       -0.7820715564        0.6130915762
 C         -3.4327880319       -0.9866423536       -0.2677625434
 C         -4.6594082986       -0.2344832467        0.0404076567
 C         -4.6889800545        0.5844478068        1.1062917226
 C         -5.8497841014        1.4532469633        1.4931570572
 C         -5.7436523209        2.8422223260        0.8479620380
 C         -5.4578924001        2.8060930288       -0.6534231410
 H         -5.4353784192        3.8399957019       -1.0046797970
 H         -4.4606938962        2.3903472035       -0.8162260311
 C         -6.4800603482        2.0086455568       -1.4754432809
 H         -7.3956975941        1.8745586521       -0.8984219892
 H         -6.7393101624        2.5853235446       -2.3657887569
 C         -5.9807767600        0.6453995957       -1.9574181976
 H         -6.6881951748        0.2675109311       -2.7003319411
 H         -5.0151323238        0.7640813568       -2.4551698133
 C         -5.8351714398       -0.4318362625       -0.8752955956
 H         -6.7609730343       -0.5055202627       -0.3015101236
 H         -5.6652372737       -1.3875728815       -1.3792426395
 H         -6.6762693688        3.3792440022        1.0302832596
 H         -4.9344627935        3.3896539184        1.3369730665
 H         -6.7759224450        0.9695189776        1.1889849735
 H         -5.8479012011        1.5652787433        2.5786713886
 O         -3.6276712038        0.7496103227        1.9367407699
 C         -2.4389745684        0.0799761789        1.7106532594
 O         -1.5511848648        0.3252112925        2.5535032645
 O         -3.4115787699       -1.7520917431       -1.2678915797
 C         -0.9969572697       -1.4721680246        0.4543677451
 C         -0.1292162835       -0.7950480822       -0.5801293103
 C         -0.5085443562       -0.7192824464       -1.9164702975
 C          0.3255656342       -0.1266990582       -2.8464974229
 C          1.5576734104        0.3787353876       -2.4705919807
 C          1.9427707510        0.3131823017       -1.1367960133
 C          1.0942201442       -0.2623478113       -0.2014358136
 H          1.4023068041       -0.2955074856        0.8338550848
 N          3.1787905749        0.8312061905       -0.7180887695
 S          4.0018877473        0.0225205180        0.5151584816
 O          3.9042273412       -1.4063600097        0.3195480897
 O          3.5474262316        0.5254929682        1.7874056439
 C          5.6699365394        0.5743053866        0.2099955129
 C          6.5150113069       -0.2166999931       -0.5454727609
 C          7.8006985096        0.2321811715       -0.8035658249
 C          8.2161031234        1.4587349991       -0.3073311014
 C          7.3567083434        2.2411906420        0.4498138391
 C          6.0701477933        1.7980549816        0.7125731128
 H          5.3704731322        2.3659270318        1.3036677393
 H          7.6841875257        3.1926493151        0.8367061190
 H          9.2171543363        1.8057676608       -0.5090202757
 H          8.4721579120       -0.3752340824       -1.3887289519
 H          6.1512066871       -1.1668947229       -0.9021590001
 H          3.7894268503        1.0662807013       -1.4886454232
 H          2.2140466378        0.8264432909       -3.2014635883
 H          0.0192555814       -0.0714151377       -3.8803215165
 H         -1.4620711979       -1.1269361502       -2.2145313776
 H         -0.4920777205       -1.3614964770        1.4244428372
 C         -1.1091044316       -2.9538876095        0.1445990444
 C          0.0964683961       -3.8203139937        0.3450713794
 C         -1.0788997181       -3.9441924225        1.2670556005
 H         -1.7006524124       -4.8239601873        1.1950640314
 H         -0.9812739046       -3.5587618358        2.2720110451
 H          0.2810404538       -4.6157020942       -0.3607554817
 H          0.9954561168       -3.3502220186        0.7182619929
 H         -1.7524482442       -3.1701991410       -0.6977775687
