  62
        -98.93626047
 C          2.5635541302        0.0449380263        0.4581675242
 C          1.9874110296       -0.5354123487       -0.6955436649
 C          1.4186912881       -1.8863391395       -0.5398389621
 C          1.5387870014       -2.5137513555        0.6437503529
 C          1.0143455891       -3.8640948669        1.0645102907
 C          1.0976534712       -5.0076588756        0.0431589487
 C         -0.2596091470       -5.4029363979       -0.5419842192
 H         -0.2038115133       -6.4385221907       -0.8848015946
 H         -1.0048174372       -5.3611397739        0.2549591777
 C         -0.7355783550       -4.5526395956       -1.7186936197
 H         -1.7663314017       -4.8388256892       -1.9399066804
 H         -0.1355664300       -4.7866975051       -2.6007554668
 C         -0.6843351767       -3.0405542210       -1.4937343520
 H         -1.3845060575       -2.5635087716       -2.1834668282
 H         -1.0215934202       -2.7795040858       -0.4897448022
 C          0.7027129824       -2.4292756915       -1.7447664159
 H          1.3464158313       -3.1486196910       -2.2595311198
 H          0.6016504394       -1.5700258153       -2.4153188946
 H          1.7935001016       -4.7453224740       -0.7515926080
 H          1.5062439731       -5.8790779944        0.5575703632
 H         -0.0209698381       -3.7296707531        1.3908528033
 H          1.5891854684       -4.1222028619        1.9574231003
 O          2.1755887372       -1.9435339435        1.7080791259
 C          2.6474007583       -0.6448673077        1.6636990334
 O          3.1236789372       -0.2290194213        2.7412620873
 O          1.9344016781        0.0568706384       -1.8066323290
 C          3.0097689261        1.4944469389        0.4291943840
 C          1.8600274161        2.3658452183       -0.0223512835
 C          2.0319044598        3.5056668015       -0.7980357043
 C          0.9356523256        4.2439185351       -1.2096887774
 C         -0.3488781698        3.8501057249       -0.8823175814
 C         -0.5304647422        2.7191690389       -0.0951364999
 C          0.5713270831        2.0121270405        0.3548854337
 H          0.4142922906        1.1389909266        0.9707773421
 N         -1.8208192307        2.2723710696        0.2636572097
 S         -2.1468681725        0.6321773634       -0.0225187539
 O         -1.4858984091       -0.1732985569        0.9731082435
 O         -1.8799506589        0.3151898124       -1.4066953436
 C         -3.9069992636        0.6185656917        0.2722907950
 C         -4.7755852084        0.7342417519       -0.7964505602
 C         -6.1398463037        0.7616286552       -0.5528223590
 C         -6.6100138538        0.6768368905        0.7489714609
 C         -5.7263285824        0.5593118305        1.8115702646
 C         -4.3612289259        0.5303420819        1.5741474235
 H         -3.6368263032        0.4317124479        2.3658989167
 H         -6.0948796370        0.4901757012        2.8223447275
 H         -7.6717774972        0.6991665582        0.9368143811
 H         -6.8289598979        0.8490449129       -1.3772401598
 H         -4.3641552102        0.7870413934       -1.7917166258
 H         -2.5401367032        2.8269701409       -0.1849806719
 H         -1.2036630807        4.4079041037       -1.2347886690
 H          1.0830289970        5.1254557874       -1.8151864912
 H          3.0242112558        3.8082862910       -1.0910406925
 H          3.2609715537        1.7582243953        1.4677962634
 C          4.2482112537        1.6569863426       -0.4291466422
 C          5.2832799345        2.6847980310       -0.0852652475
 C          5.5717554829        1.2302733054        0.1286545524
 H          6.2735063714        0.7381547681       -0.5277075825
 H          5.5794000270        0.8506249566        1.1402594236
 H          5.7928360699        3.1921208324       -0.8906298618
 H          5.1102919178        3.2975012028        0.7866080888
 H          4.0540365362        1.4502831932       -1.4755147757
