  62
        -98.93875687
 C          1.8378168392        0.7938110447        0.3318685978
 C          2.4398552953        0.1666890680       -0.7834701510
 C          3.5228546100       -0.7893692972       -0.4863939536
 C          3.8428187297       -1.0405341387        0.7948204756
 C          4.9433265427       -1.9288482082        1.3052535490
 C          6.2215301290       -1.1130340392        1.5633959484
 C          7.1366580642       -0.9485425105        0.3505245073
 H          7.6142364042       -1.9054599903        0.1295763855
 H          7.9250868530       -0.2466578563        0.6318043150
 C          6.4550079325       -0.4376748884       -0.9216840146
 H          7.2273750409       -0.0167473882       -1.5683274064
 H          5.7667521115        0.3716883956       -0.6716118771
 C          5.7100873477       -1.5385258042       -1.6916247015
 H          6.0089035427       -2.5107132601       -1.2996490069
 H          6.0194685506       -1.5193714120       -2.7386301227
 C          4.1775456877       -1.4269725170       -1.6810975026
 H          3.7454997185       -2.4229507306       -1.8260730940
 H          3.8499893441       -0.8203707550       -2.5313335925
 H          6.7942154458       -1.6002675369        2.3551975382
 H          5.9216103835       -0.1297713277        1.9349166459
 H          4.5965521837       -2.3420129778        2.2548887246
 H          5.1305882914       -2.7462157848        0.6151919564
 O          3.2029542295       -0.4483720782        1.8412416363
 C          2.1961029321        0.4782003508        1.6413130847
 O          1.6968420745        0.9343163819        2.6908450729
 H         -0.4140966714       -0.4878878191        0.7555404171
 C         -0.9086210102       -0.0333989307       -0.0946605928
 C         -0.4385972836        1.1820993959       -0.5778267705
 C         -1.0929386454        1.7623720795       -1.6559368027
 C         -2.1659968982        1.1216690922       -2.2525518571
 C         -2.6160531464       -0.0981000454       -1.7836230355
 C         -1.9818755268       -0.6767331219       -0.6906868602
 N         -2.4435121097       -1.9055588380       -0.1905104186
 S         -4.0951348406       -2.1216888476       -0.0348510722
 O         -4.2522005867       -3.0742962841        1.0420474909
 O         -4.6550804906       -2.5130729742       -1.3045359011
 C         -4.7401887282       -0.5267005812        0.4393931027
 C         -4.2511699162        0.0595568055        1.5900843073
 C         -4.7214923474        1.3097800085        1.9570764214
 C         -5.6691207830        1.9489106164        1.1719692921
 C         -6.1548600870        1.3443825157        0.0232199641
 C         -5.6858453047        0.0950260498       -0.3502167354
 H         -6.0324397973       -0.4097576066       -1.2372158204
 H         -6.8930712807        1.8427193531       -0.5840367252
 H         -6.0300283950        2.9237259102        1.4595130932
 H         -4.3433735433        1.7806929790        2.8503956144
 H         -3.5169025357       -0.4628192792        2.1827689554
 H         -1.9494243408       -2.2299900037        0.6271460758
 H         -3.4375743837       -0.6174253950       -2.2497322905
 H         -2.6567646961        1.5778093390       -3.0984817606
 H         -0.7568968251        2.7120483522       -2.0376089249
 C          0.7364699356        1.8179953288        0.1254820052
 H          0.4068439328        2.1128226429        1.1326946975
 C          1.2829527755        3.0387990227       -0.5846063173
 C          0.6789947753        4.3880219561       -0.3405823345
 C          2.0323608642        4.0615498199        0.2136403653
 H          2.9002895438        4.5269652508       -0.2289270387
 H          2.1248155505        3.8903478148        1.2766577360
 H         -0.1483792165        4.4482920319        0.3499657707
 H          0.6193587032        5.0832444141       -1.1642321028
 H          1.6522716673        2.8118301301       -1.5778746425
 O          2.0990216100        0.3963957407       -1.9728775206
