  62
        -98.93695324
 C         -1.9051026497       -1.4815782807        0.4174264602
 C         -1.6490393599       -0.4860167107       -0.5540546199
 C         -2.4157444299        0.7742829693       -0.4327454597
 C         -3.2463356796        0.9361958993        0.6129276005
 C         -4.0962665795        2.1286981194        0.9663573608
 C         -3.2784851993        3.2934932093        1.5412718906
 C         -2.0330500895        3.6543956193        0.7367830003
 H         -1.5183777793        4.4569673293        1.2716385702
 H         -1.3596574095        2.7959064293        0.7110471402
 C         -2.3030447398        4.1335360793       -0.6877952796
 H         -3.0074345497        4.9674999694       -0.6577905294
 H         -1.3594878498        4.5122198793       -1.0861072798
 C         -2.8339100500        3.0759269594       -1.6607591495
 H         -3.9083347500        2.9446686494       -1.5585102893
 H         -2.6664058203        3.4519719594       -2.6739026695
 C         -2.1372199301        1.7219594994       -1.5739389297
 H         -2.3673266903        1.1538721494       -2.4830915397
 H         -1.0512437001        1.8652356793       -1.5927798399
 H         -2.9620129491        3.0220450993        2.5516904005
 H         -3.9318156792        4.1647500894        1.6167707408
 H         -4.6690323797        2.4533285494        0.1028921709
 H         -4.8039697893        1.7918587594        1.7274785009
 O         -3.3973376794       -0.0238297507        1.5727943205
 C         -2.7492186195       -1.2403506407        1.5027125204
 O         -2.9891214993       -2.0083000907        2.4571333104
 H          0.4982836906       -1.3429577908        1.7155237396
 C          0.9917197903       -1.8382616408        0.8872373295
 C          0.2454432401       -2.6681592608        0.0586039096
 C          0.8872258399       -3.2933001608       -1.0016040405
 C          2.2384864498       -3.0879431008       -1.2211877808
 C          2.9768949900       -2.2607755509       -0.3957848210
 C          2.3421344003       -1.6221852409        0.6628661792
 N          3.0760626705       -0.7790176209        1.5191132090
 S          4.0252418304        0.4394970690        0.8788222889
 O          5.1059109502       -0.1482959610        0.1283527886
 O          4.4030805107        1.2492133790        2.0151239488
 C          2.9733026102        1.3830507191       -0.2083355209
 C          2.3455542604        2.5051039691        0.2952415893
 C          1.5288092302        3.2488946992       -0.5398667505
 C          1.3435171499        2.8508231992       -1.8552989905
 C          1.9679386997        1.7126199792       -2.3413104006
 C          2.7942560799        0.9704223392       -1.5133884609
 H          3.3044390798        0.0884939191       -1.8629851010
 H          1.8111570295        1.3979172492       -3.3602027706
 H          0.7136211998        3.4340166293       -2.5092406603
 H          1.0403386703        4.1329183292       -0.1620430904
 H          2.5238968306        2.7844291391        1.3214209193
 H          2.5311449707       -0.4164837909        2.2879292592
 H          4.0291097200       -2.0910265909       -0.5579995212
 H          2.7246201296       -3.5794920908       -2.0504266610
 H          0.3274956197       -3.9248165907       -1.6712590604
 C         -1.2209888998       -2.8366569507        0.3726165400
 H         -1.2987230696       -3.2283570208        1.4009115600
 C         -1.9168893201       -3.8471552707       -0.5279770999
 C         -3.3859351801       -3.7505796906       -0.8095714996
 C         -2.3951715304       -3.4923771706       -1.9026208698
 H         -2.2960116306       -4.2287775906       -2.6866643398
 H         -2.2457957404       -2.4773036606       -2.2342364598
 H         -3.9616976702       -4.6635698406       -0.8385115294
 H         -3.9233134200       -2.9108267806       -0.3929641694
 H         -1.5233888501       -4.8496565607       -0.3905734500
 O         -0.8234008402       -0.6202080907       -1.4927596101
