  62
        -98.93656403
 C          1.8298180216        1.2311158506       -0.0428071722
 C          2.4798296744        0.5084343635        0.9820508733
 C          3.6589180299       -0.2860612007        0.5901905347
 C          4.0456323958       -0.2850101053       -0.6983940920
 C          5.2022056971       -1.0113794930       -1.3375703796
 C          6.5380308188       -0.9836924990       -0.5788209349
 C          6.9254735229       -2.3367181025        0.0204926218
 H          6.6621835570       -3.1207645492       -0.6926513579
 H          8.0098008007       -2.3646170550        0.1488986993
 C          6.2923857050       -2.6525556375        1.3745208312
 H          6.7498955864       -2.0252110630        2.1426215990
 H          6.5325933994       -3.6903326514        1.6175364027
 C          4.7747779409       -2.4715363841        1.4454838650
 H          4.4039978415       -3.0864177964        2.2685912252
 H          4.3030749766       -2.8418704807        0.5357304570
 C          4.3399388125       -1.0224892816        1.7117482357
 H          3.6172256768       -1.0019158912        2.5335881272
 H          5.1964857454       -0.4332103641        2.0515985483
 H          7.3163577152       -0.6945992861       -1.2868181768
 H          6.5083703044       -0.2198704342        0.1966380325
 H          4.9020742285       -2.0458975542       -1.5228848829
 H          5.3220774791       -0.5437630323       -2.3175286954
 O          3.3690527068        0.4057798035       -1.6603196276
 C          2.2503156036        1.1686512170       -1.3705958392
 O          1.7385066755        1.7274566980       -2.3578850892
 O          2.0858303556        0.5163185953        2.1809712073
 C          0.6112672777        2.0679250244        0.3032819198
 C         -0.6024199958        1.5185809161       -0.4056554856
 C         -1.4672639597        2.2930703652       -1.1664072361
 C         -2.5533927707        1.7131138004       -1.8005363935
 C         -2.8075359984        0.3598387243       -1.6814509603
 C         -1.9607231061       -0.4204665842       -0.9029691847
 C         -0.8745921746        0.1620600470       -0.2691298230
 H         -0.2131798684       -0.4482345923        0.3334190114
 N         -2.2193645278       -1.7928956525       -0.7564179654
 S         -3.8004457623       -2.2801756017       -0.5116032045
 O         -3.7033563337       -3.5200121906        0.2267914267
 O         -4.4870462815       -2.3563818257       -1.7772142020
 C         -4.5389099225       -1.0064952452        0.4971424116
 C         -5.6517899142       -0.3287453681        0.0428393057
 C         -6.1947551684        0.6735514403        0.8308319499
 C         -5.6153858869        0.9818152587        2.0516090629
 C         -4.4994900092        0.2890464522        2.4961762931
 C         -3.9542449224       -0.7158163114        1.7139393984
 H         -3.0889683997       -1.2736678931        2.0350975456
 H         -4.0494314384        0.5293824437        3.4460824552
 H         -6.0346299896        1.7659597284        2.6619692653
 H         -7.0635848682        1.2121438284        0.4885510276
 H         -6.0668222784       -0.5979332143       -0.9148019103
 H         -1.5818394428       -2.2706142727       -0.1373639777
 H         -3.6374401871       -0.1073010864       -2.1863044689
 H         -3.2096601154        2.3244807375       -2.4006059770
 H         -1.2855536318        3.3492495911       -1.2748490008
 H          0.4633879122        1.9316357068        1.3848119598
 C          0.8714600856        3.5332626733        0.0284366822
 C          0.1425545281        4.5856720386        0.8076939909
 C          1.6000715303        4.3438047642        1.0568206537
 H          2.3130415411        5.0816906638        0.7207652850
 H          1.8891176740        3.8436405623        1.9697456927
 H         -0.1452837679        5.4949885595        0.3022713595
 H         -0.5603456367        4.2550049888        1.5570087546
 H          1.0985765487        3.7284645965       -1.0133895088
