  62
        -98.94736876
 C         -1.7838790224       -1.1833737064       -0.4408741523
 C         -1.2357653200       -1.8550569260        0.6816230271
 C         -0.1018557809       -2.7544985449        0.3999196913
 C          0.3618161089       -2.8737455173       -0.8560891319
 C          1.5418862516       -3.7035891801       -1.2688991003
 C          2.8457725992       -2.8954322597       -1.2255227458
 C          3.0792911279       -2.1546211348        0.0913325852
 H          4.0585397049       -1.6743507459        0.0260618320
 H          2.3442736119       -1.3541689443        0.1989991378
 C          3.0259749716       -3.0403941815        1.3432041970
 H          3.1563651175       -4.0883418654        1.0682275192
 H          3.8567074965       -2.7688159428        1.9979941243
 C          1.7450196956       -2.8813844090        2.1651446327
 H          1.5555616061       -1.8189288758        2.3403583152
 H          1.9053367110       -3.3497404807        3.1406440832
 C          0.4819046943       -3.5089808062        1.5608468563
 H          0.6843791217       -4.5456928478        1.2802844037
 H         -0.2895925664       -3.5073970045        2.3367708736
 H          3.6768727581       -3.5791403820       -1.4084402032
 H          2.8269214037       -2.1578642039       -2.0310654013
 H          1.6172384352       -4.5683647219       -0.6123820190
 H          1.3747800594       -4.0484971322       -2.2909249009
 O         -0.1862647400       -2.2133064404       -1.9078379537
 C         -1.2587547622       -1.3568519961       -1.7254237250
 O         -1.6568267876       -0.8122739379       -2.7745768237
 H         -0.9527651109        0.6722069410        1.3129554341
 C         -1.3304366780        1.4685451063        0.6901476390
 C         -2.3598685247        1.2230213009       -0.2068332456
 C         -2.8447415093        2.2775361122       -0.9714558267
 C         -2.3017360802        3.5436578717       -0.8485135131
 C         -1.2430401770        3.7732526286        0.0117183574
 C         -0.7492460409        2.7253982366        0.7800716606
 N          0.3486029765        2.9161230720        1.6392932170
 S          1.6440997171        1.8591958647        1.5350003734
 O          1.2738696187        0.5626746727        2.0344121377
 O          2.7144952785        2.5344185379        2.2360892372
 C          2.0297095425        1.7717267989       -0.2037965513
 C          1.3411793617        0.8823495201       -1.0035768237
 C          1.6038072611        0.8560020601       -2.3638610878
 C          2.5528847937        1.7134112096       -2.8985327834
 C          3.2416691044        2.5981960356       -2.0819748843
 C          2.9751821746        2.6344929606       -0.7228977353
 H          3.4903599666        3.3017684994       -0.0510147746
 H          3.9817674931        3.2602225040       -2.5017789084
 H          2.7547332577        1.6885015021       -3.9577715553
 H          1.0526523678        0.1709897172       -2.9903013130
 H          0.6085821117        0.2239391529       -0.5631466903
 H          0.6860027117        3.8681618207        1.6676522341
 H         -0.7980320760        4.7536567143        0.0881751703
 H         -2.6897975391        4.3548271380       -1.4450883373
 H         -3.6411850566        2.0958477749       -1.6771499419
 C         -2.9188911071       -0.1731486160       -0.3649607218
 H         -3.4242916759       -0.2148741318       -1.3404780778
 C         -3.9464299958       -0.4522604866        0.7130080426
 C         -5.3484256192        0.0434155841        0.5301193895
 C         -5.0536374413       -1.4232743244        0.4402662574
 H         -5.3764755811       -2.0705380064        1.2415171937
 H         -5.0790854594       -1.8901729762       -0.5338435683
 H         -5.8794715093        0.4090964461        1.3954011788
 H         -5.5831075460        0.5674095253       -0.3838514709
 H         -3.5339334726       -0.4391877049        1.7131359526
 O         -1.6530860230       -1.7347093239        1.8630143326
