  62
        -98.93968286
 C          1.6510495983       -1.4171494445       -0.2408656634
 C          1.4314361077       -0.1696001381        0.3965843898
 C          2.6358543782        0.5141972685        0.8998727902
 C          3.8443742243       -0.0466496500        0.7217043565
 C          5.1489496218        0.5700667214        1.1336207406
 C          5.7438199021        1.4177414476        0.0004786617
 C          4.7518283847        2.3990937098       -0.6244147161
 H          5.2900567943        2.9627492462       -1.3896056968
 H          3.9649485234        1.8380459711       -1.1342995763
 C          4.1105250033        3.3750766188        0.3719321747
 H          4.7021138159        3.4120253357        1.2875284850
 H          4.1221580079        4.3771184768       -0.0621624778
 C          2.6550687244        3.0597293551        0.7227552760
 H          2.0720613272        2.9344740319       -0.1939832402
 H          2.2393928331        3.9202831592        1.2544250538
 C          2.4343460581        1.8254446956        1.6058668118
 H          3.0691489537        1.8887977708        2.4922547695
 H          1.3888650272        1.8361271464        1.9280443267
 H          6.6016271025        1.9665270468        0.3933356071
 H          6.1001848014        0.7463028113       -0.7841281744
 H          4.9913451163        1.1853684188        2.0172616762
 H          5.8466996242       -0.2321819549        1.3794999434
 O          4.0182038640       -1.2346599482        0.0889171777
 C          2.9372464174       -1.9357729197       -0.4194377505
 O          3.2478238790       -2.9938257093       -1.0024702917
 H         -1.9178516441       -1.0548031705       -0.3301956907
 C         -1.5521723679       -0.8495457383       -1.3223148139
 C         -0.3317488693       -1.3665465069       -1.7303189252
 C          0.1313460908       -1.0655359308       -3.0078178192
 C         -0.6145977655       -0.2774252166       -3.8633497982
 C         -1.8320111536        0.2358257132       -3.4526152851
 C         -2.2956882907       -0.0432688892       -2.1734484221
 N         -3.5359773809        0.4608862604       -1.7266699910
 S         -3.4939291020        1.5661315987       -0.4553013752
 O         -4.8052411927        2.1861388897       -0.4881037862
 O         -2.3796667588        2.4769894924       -0.5828212956
 C         -3.3791817518        0.5828575411        1.0193269251
 C         -2.3973148660        0.8509825064        1.9494297378
 C         -2.3678251314        0.1062703634        3.1183321918
 C         -3.3146292222       -0.8828787846        3.3329146418
 C         -4.2965070514       -1.1371675342        2.3861838162
 C         -4.3344096080       -0.3953264652        1.2173316546
 H         -5.0824773973       -0.5549512708        0.4585697710
 H         -5.0297730414       -1.9090052252        2.5574011045
 H         -3.2853599260       -1.4598933707        4.2441588785
 H         -1.6022637325        0.2980611940        3.8533787787
 H         -1.6660595291        1.6107114045        1.7291530750
 H         -4.0933373232        0.8584648147       -2.4717773252
 H         -2.4179348261        0.8565408266       -4.1146914955
 H         -0.2457796120       -0.0576012657       -4.8541024750
 H          1.0881747437       -1.4601288934       -3.3227483415
 C          0.5159626899       -2.2353991111       -0.8353997096
 H          1.0164916075       -2.9810765041       -1.4740068104
 C         -0.3067635473       -3.0206154123        0.1751981153
 C          0.3648230633       -3.7085346826        1.3257503822
 C         -0.5618498731       -2.5587846748        1.5763296247
 H         -1.5304288160       -2.7647997646        2.0078172997
 H         -0.1446693339       -1.6136887002        1.8831903995
 H          0.0411932965       -4.7030286006        1.5929658070
 H          1.4263975010       -3.5464421035        1.4466539267
 H         -1.1125846296       -3.5647100676       -0.3082700374
 O          0.3016862019        0.3560173747        0.5572930351
