  62
        -98.93800526
 C         -2.4220795298       -0.4287973295        0.4702669723
 C         -3.2214838719       -0.3745885344       -0.6987007876
 C         -4.2954653112        0.6308163339       -0.6860230067
 C         -4.4371636956        1.4572189331        0.3646960556
 C         -5.4611255632        2.5509288414        0.5031159025
 C         -6.8252914991        2.0678140407        1.0142865851
 C         -7.6510695382        1.2665381684        0.0070043233
 H         -8.6597544503        1.1807441473        0.4160664781
 H         -7.7250714569        1.8251260704       -0.9265504504
 C         -7.1120323783       -0.1427935468       -0.2753992134
 H         -6.4121777590       -0.4296115158        0.5130588642
 H         -7.9356506549       -0.8599042954       -0.2477505632
 C         -6.4215560699       -0.2976987512       -1.6305476945
 H         -7.1478062856       -0.1418858089       -2.4313515332
 H         -6.0479544332       -1.3218142724       -1.7098081742
 C         -5.2399874313        0.6560391143       -1.8499606494
 H         -4.6888263949        0.3217160665       -2.7322110198
 H         -5.6016992931        1.6688015059       -2.0255298823
 H         -6.6687936334        1.4698593106        1.9151624909
 H         -7.3985947908        2.9530860882        1.2990000685
 H         -5.0565702837        3.2649454233        1.2237148876
 H         -5.5883865326        3.0574607017       -0.4539910571
 O         -3.6211831942        1.4011002843        1.4515613320
 C         -2.6185021876        0.4516935067        1.5377299607
 O         -1.9725719773        0.4873177259        2.6054920423
 O         -3.0649981008       -1.1087876790       -1.7064073420
 C         -1.2886633189       -1.4245938420        0.6569332723
 C         -0.0035149100       -0.8651749665        0.1033982291
 C          0.0858741927       -0.4296082630       -1.2153602831
 C          1.2740377291        0.0819761539       -1.7036351020
 C          2.3907796252        0.1776029211       -0.8911828640
 C          2.3112816720       -0.2494317278        0.4270272696
 C          1.1183973619       -0.7704781207        0.9130355040
 H          1.0570690496       -1.0917472015        1.9445103858
 N          3.4352267595       -0.1359862525        1.2613718985
 S          4.9077917371       -0.7245842203        0.7111299161
 O          4.7227341683       -1.8107724200       -0.2226548390
 O          5.6633581405       -1.0253566947        1.9072128581
 C          5.6505780077        0.6700886990       -0.1085871341
 C          6.0578041863        0.5592896353       -1.4235839964
 C          6.6448972226        1.6547239410       -2.0377040236
 C          6.8143069429        2.8343715884       -1.3292651032
 C          6.4020475613        2.9284292584       -0.0082140181
 C          5.8153667470        1.8369141794        0.6117660143
 H          5.4855378308        1.8680601899        1.6368602156
 H          6.5355977874        3.8475231632        0.5393343056
 H          7.2705929715        3.6857010920       -1.8092812485
 H          6.9666001105        1.5835957370       -3.0643154166
 H          5.9018736653       -0.3765068465       -1.9364943286
 H          3.2668079509       -0.4160717180        2.2166298396
 H          3.3171729894        0.5791489746       -1.2680852221
 H          1.3314046919        0.4139664543       -2.7292113959
 H         -0.7847231375       -0.5011237953       -1.8495263769
 H         -1.1654754598       -1.5143907863        1.7481288752
 C         -1.6202862811       -2.8139364781        0.1285772863
 C         -0.9307327877       -3.4560673040       -1.0336291601
 C         -0.6595578725       -3.9441020210        0.3555944484
 H         -1.0481816873       -4.9048043251        0.6579552742
 H          0.2999252251       -3.7003588426        0.7884787428
 H         -1.5298750743       -4.0654314769       -1.6928121558
 H         -0.1515718237       -2.9074050428       -1.5384714464
 H         -2.6737514939       -3.0473224097        0.2443298518
