  62
        -98.94357154
 C         -1.8339365082       -0.3109243223       -0.2710045454
 C         -2.9804509080       -0.6089550058       -1.0446502264
 C         -4.2598736057       -0.6095706155       -0.3231399985
 C         -4.2690918913       -0.3530309900        0.9980287220
 C         -5.5051770250       -0.2712017507        1.8452511015
 C         -6.0477467935        1.1638182759        1.8993413034
 C         -6.1839819021        1.8249321388        0.5277519786
 H         -6.6040767971        2.8204242366        0.6867513697
 H         -5.1893445343        1.9607307839        0.0970641173
 C         -7.0632649149        1.0519066534       -0.4650357514
 H         -7.7322598206        1.7565987049       -0.9634954198
 H         -7.6881416453        0.3369851203        0.0714662206
 C         -6.2873830832        0.3219928518       -1.5629721102
 H         -7.0007847196       -0.0042870187       -2.3245370639
 H         -5.5915983461        1.0149997174       -2.0426535638
 C         -5.5011039845       -0.9159295686       -1.1133815002
 H         -6.1582801502       -1.5862446704       -0.5554212477
 H         -5.1616220482       -1.4381827680       -2.0128845257
 H         -7.0199734899        1.1464762609        2.3952322650
 H         -5.3678524670        1.7678527865        2.5044288044
 H         -5.2503291836       -0.5921884146        2.8566289966
 H         -6.2614487184       -0.9416970868        1.4416524065
 O         -3.1445064871       -0.0900035695        1.7111753025
 C         -1.8998919416       -0.0564242902        1.0990545591
 O         -0.9553135461        0.2028410598        1.8672283149
 O         -2.9346521918       -0.8686587854       -2.2779656571
 C         -0.4766875242       -0.2829381549       -0.9483863634
 C          0.4538494737       -1.2918439067       -0.3216379496
 C         -0.0237508179       -2.5684637749       -0.0346416861
 C          0.7974977865       -3.5185729986        0.5389612097
 C          2.1199335427       -3.2238851904        0.8212857083
 C          2.6120053870       -1.9596135990        0.5249878018
 C          1.7795637355       -1.0019279206       -0.0395419261
 H          2.1819624502       -0.0277377818       -0.2610937581
 N          3.9437567383       -1.6254695622        0.8083867826
 S          4.8227200452       -0.6875654502       -0.2603105393
 O          4.4350588864       -0.9322102748       -1.6298015849
 O          6.2058433774       -0.9665187995        0.0648405935
 C          4.4603108901        0.9961534325        0.1907506797
 C          4.3032801668        1.3192888477        1.5238254618
 C          4.0668489135        2.6405975955        1.8679890282
 C          4.0011305505        3.6127356357        0.8813868903
 C          4.1678551254        3.2731475539       -0.4521555013
 C          4.3998078101        1.9523918810       -0.8035949574
 H          4.5236221642        1.6421609100       -1.8290759550
 H          4.1165030394        4.0304207966       -1.2185019481
 H          3.8175127970        4.6403429220        1.1530503389
 H          3.9331448869        2.9075101719        2.9039929394
 H          4.3563690380        0.5402867783        2.2657243512
 H          4.4996155366       -2.3723821643        1.1983688699
 H          2.7642465819       -3.9657042197        1.2682934687
 H          0.4084359548       -4.5006197049        0.7628417780
 H         -1.0545016698       -2.8042063450       -0.2624415339
 H         -0.6611679000       -0.5947854091       -1.9879638516
 C          0.0752330192        1.1275051795       -0.9547167659
 C          0.9841508730        1.5842050564       -2.0551580098
 C         -0.4230374138        2.0940016849       -1.9856496943
 H         -0.5862938745        3.1206393951       -1.6945541851
 H         -1.1388923125        1.7243784403       -2.7054623686
 H          1.7867039919        2.2623419217       -1.8075092004
 H          1.2335329733        0.8716286775       -2.8272261690
 H          0.2518699308        1.5074014270        0.0455673520
