  62
        -98.94454487
 C          1.3875644421        1.4512233365        0.4363336499
 C          1.7276138288        0.4120663462        1.3391845297
 C          2.8096441798       -0.4884202373        0.9251089448
 C          3.3966333691       -0.3013590478       -0.2700865162
 C          4.4969782843       -1.1539407766       -0.8304481125
 C          3.9433488426       -2.2885033470       -1.7024064326
 C          2.8240219495       -3.0960314952       -1.0438757329
 H          1.9291251289       -2.4752193553       -0.9488012272
 H          2.5647903056       -3.9067532013       -1.7292804561
 C          3.1827685171       -3.6864251171        0.3270227861
 H          2.8185244633       -4.7153299441        0.3650960592
 H          4.2667546187       -3.7201330824        0.4460279695
 C          2.5600497799       -2.9519018203        1.5159088973
 H          2.6494773503       -3.5924647870        2.3976801520
 H          1.4936476732       -2.8039853601        1.3228129560
 C          3.1871953928       -1.5961001389        1.8670781820
 H          4.2725192195       -1.6985629812        1.9315630790
 H          2.8103484433       -1.2976342615        2.8498154511
 H          4.7684885749       -2.9553014706       -1.9614217713
 H          3.5513503406       -1.8571857300       -2.6265679890
 H          5.1416248318       -0.5211892394       -1.4435381040
 H          5.0822960532       -1.5651709277       -0.0101070634
 O          3.0228331331        0.6808033046       -1.1274037445
 C          1.9771303065        1.5450312254       -0.8256772548
 O          1.6924892775        2.3275774703       -1.7510809514
 O          1.1415781862        0.2396969290        2.4424627669
 C          0.2134290468        2.3395350090        0.8089469782
 C         -0.8609904735        2.2278616769       -0.2453796115
 C         -1.5773402246        3.2984767478       -0.7625901381
 C         -2.5638844903        3.0811749042       -1.7105783521
 C         -2.8684807815        1.8055018588       -2.1496372914
 C         -2.1530170478        0.7271644510       -1.6394492579
 C         -1.1666192926        0.9507059700       -0.6959660215
 H         -0.5955120341        0.1134823037       -0.3283028815
 N         -2.4024509784       -0.5851393219       -2.0611633652
 S         -2.0910159867       -1.8819721474       -1.0584457816
 O         -0.6717298273       -2.0901073514       -0.9171979996
 O         -2.8309051384       -2.9723128260       -1.6582084386
 C         -2.8339833091       -1.4522500088        0.5058744016
 C         -2.0582699042       -1.2117205016        1.6207889099
 C         -2.6805797057       -0.8468883458        2.8047183811
 C         -4.0604533303       -0.7311952811        2.8546611169
 C         -4.8284154482       -0.9854350347        1.7278792905
 C         -4.2115755292       -1.3469587718        0.5421528361
 H         -4.7745473675       -1.5640765749       -0.3510027679
 H         -5.9022087573       -0.9000540647        1.7704650330
 H         -4.5387075553       -0.4441508319        3.7777898026
 H         -2.0737986249       -0.6485570680        3.6739563723
 H         -0.9843049494       -1.2993106615        1.5607432542
 H         -3.2195513758       -0.7180927884       -2.6365775798
 H         -3.6370419412        1.6439291315       -2.8895782272
 H         -3.1081246569        3.9220383038       -2.1131156974
 H         -1.3530501010        4.3025164426       -0.4420806497
 H         -0.1874854643        1.8682807473        1.7237144144
 C          0.5620675366        3.7702381538        1.1895193371
 C          1.9618456982        4.1630186237        1.5541802620
 C          1.3421419000        4.6838069501        0.2938358954
 H          1.0597426376        5.7260429829        0.2568248435
 H          1.6829969689        4.2851018009       -0.6479663872
 H          2.1068948070        4.8424564200        2.3808818043
 H          2.7316475373        3.4095039159        1.4660565382
 H         -0.2258379766        4.2329610404        1.7762112802
