  62
        -98.93276778
 C         -2.3757321290       -1.2576668359       -0.0519994416
 C         -2.3311735626        0.1534957193        0.0394425012
 C         -3.6105386584        0.8172316493        0.3323389437
 C         -4.7195694483        0.0781199553        0.5148096879
 C         -6.0922054208        0.5855007808        0.8707436084
 C         -6.7874092676        1.4665586408       -0.1850826637
 C         -6.5849472666        2.9734556742        0.0161961991
 H         -7.5247314967        3.4859373168       -0.1988347360
 H         -6.3592353650        3.1605220697        1.0666680543
 C         -5.5111787999        3.6252928438       -0.8602648569
 H         -5.9095548826        3.7665074519       -1.8675641617
 H         -5.2986186256        4.6145965576       -0.4493591555
 C         -4.1982502921        2.8529609487       -0.9926511879
 H         -3.4621465640        3.5069262436       -1.4649097281
 H         -4.3357467686        2.0063311681       -1.6696866812
 C         -3.6289580000        2.3180884600        0.3359235362
 H         -2.5921184221        2.6407355672        0.4539457442
 H         -4.2042236383        2.6937946687        1.1808816734
 H         -6.4599519593        1.1674096739       -1.1803050192
 H         -7.8557145789        1.2550463566       -0.1188499072
 H         -6.6956818083       -0.3079899214        1.0426050220
 H         -6.0290099012        1.1326253284        1.8140349687
 O         -4.7127348249       -1.2811421531        0.4359052662
 C         -3.5532919690       -1.9788738318        0.1435485361
 O         -3.6953372498       -3.2174513920        0.0963184242
 H          1.4828295429       -1.1246451836       -0.7184286497
 C          1.2134498878       -1.2694903595        0.3133134357
 C         -0.0504150373       -1.7212192886        0.6570769306
 C         -0.3557480052       -1.8961026992        2.0048862225
 C          0.5749046236       -1.6053075298        2.9824429819
 C          1.8263440355       -1.1261654301        2.6362606850
 C          2.1457399314       -0.9585535641        1.2946006411
 N          3.4313397203       -0.5164334492        0.9232467037
 S          3.6040073214        0.6725261544       -0.2651155741
 O          2.9589047941        1.8988472324        0.1505346104
 O          3.2134757804        0.1339117513       -1.5419263553
 C          5.3762515723        0.8749869573       -0.2217191400
 C          5.9270614978        1.9671099208        0.4208147789
 C          7.3067315247        2.0956352246        0.4625372511
 C          8.1076211295        1.1332307973       -0.1331523387
 C          7.5401201837        0.0421170468       -0.7747581755
 C          6.1617362049       -0.0911928792       -0.8212298249
 H          5.6761089359       -0.9162275409       -1.3154450616
 H          8.1661450751       -0.7029263224       -1.2386695968
 H          9.1808221108        1.2354304476       -0.0996804752
 H          7.7503620018        2.9442473766        0.9579634492
 H          5.2646202238        2.6940868828        0.8627806866
 H          3.9767264781       -0.2449359757        1.7319495809
 H          2.5499877936       -0.8850242829        3.4006180640
 H          0.3224567092       -1.7419524815        4.0234107063
 H         -1.3405667534       -2.2558257214        2.2728452614
 C         -1.1118860734       -2.0374367726       -0.3682101980
 H         -1.3776077756       -3.1004219069       -0.2708361753
 C         -0.6774220695       -1.7738157063       -1.7943652840
 C          0.1190007407       -2.8011950904       -2.5391330306
 C         -1.3125889789       -2.5523050124       -2.9054179592
 H         -1.5287350287       -2.0434887545       -3.8329018529
 H         -2.0487628477       -3.2941696078       -2.6312252945
 H          0.3569220046       -3.7181178809       -2.0214083158
 H          0.8911621655       -2.4608231991       -3.2125970071
 H         -0.4579427423       -0.7275976868       -1.9791044542
 O         -1.2783798767        0.8294452190       -0.1074525161
