  62
        -98.94473908
 C          1.7636268998        0.3951656698        0.1642687690
 C          2.8765258699        0.4258949399        1.0479829489
 C          3.9990118597       -0.4574102104        0.7188814290
 C          3.9197011195       -1.2592085207       -0.3579794008
 C          4.9678060193       -2.2352279110       -0.8183470607
 C          6.0723218593       -1.6038594214       -1.6769561610
 C          7.0640864295       -0.7233397114       -0.9156615013
 H          7.4570900595       -1.2758077512       -0.0615804312
 H          7.9005946095       -0.5273597817       -1.5894188015
 C          6.4868655498        0.6181962389       -0.4426192116
 H          5.5659085698        0.8316882389       -0.9900007815
 H          7.1908883599        1.4198929287       -0.6766944019
 C          6.1992729500        0.6920368193        1.0570785084
 H          5.7625049602        1.6700560094        1.2743272482
 H          7.1352068600        0.6103757093        1.6141456383
 C          5.2312198599       -0.3828756504        1.5688761488
 H          5.7288207297       -1.3519432405        1.6026200190
 H          4.9214945700       -0.1126550301        2.5813372388
 H          5.6049741093       -1.0213296315       -2.4743133611
 H          6.6281209191       -2.4200526316       -2.1442970508
 H          4.4511106591       -2.9865109410       -1.4196715204
 H          5.4137659893       -2.7289418008        0.0455730194
 O          2.8286671194       -1.2830298107       -1.1647601207
 C          1.7385869895       -0.4525080304       -0.9431588908
 O          0.8391738794       -0.5904667405       -1.7983981706
 O          2.9278906802        1.1665699301        2.0653168087
 C          0.6230547500        1.3458682601        0.4853854389
 C         -0.5380074600        0.6579602005        1.1620771692
 C         -1.0295113698        1.1115205009        2.3803471792
 C         -2.1310741198        0.5111912612        2.9661584094
 C         -2.7629916901       -0.5552305088        2.3516912098
 C         -2.2708049603       -1.0216000692        1.1403180599
 C         -1.1743563203       -0.4123032695        0.5502034796
 H         -0.8085686604       -0.7743461999       -0.3989245904
 N         -2.9181354606       -2.0990126693        0.4920646502
 S         -4.4759892506       -1.7444641791       -0.0211858897
 O         -5.3559122004       -1.7473194087        1.1201611104
 O         -4.7790165609       -2.7018708893       -1.0609542294
 C         -4.3529944104       -0.0968714593       -0.6929304101
 C         -3.7612977805        0.0610500703       -1.9301671802
 C         -3.5931223703        1.3402501201       -2.4339986006
 C         -4.0107224500        2.4334905904       -1.6907728608
 C         -4.5959295299        2.2585483508       -0.4465547707
 C         -4.7673933701        0.9813615610        0.0620357196
 H         -5.2185231100        0.7993402813        1.0234667197
 H         -4.9144291897        3.1120478310        0.1295973191
 H         -3.8826038899        3.4286535602       -2.0873225411
 H         -3.1318393104        1.4781303898       -3.3989896007
 H         -3.4516834107       -0.8125313899       -2.4819874501
 H         -2.3846376607       -2.4464155596       -0.2934388598
 H         -3.6303392001       -1.0282388885        2.7831933200
 H         -2.5020148696        0.8772202715        3.9112415894
 H         -0.5377890896        1.9372722009        2.8730372489
 H          1.0470780302        2.0648256002        1.1991132387
 C          0.1197664800        2.1101848799       -0.7254869212
 C         -0.5601236797        3.4290619901       -0.5224807615
 C          0.8077816102        3.3768344697       -1.1326663716
 H          0.9159625301        3.5878842394       -2.1858853617
 H          1.6470172303        3.7031346997       -0.5354789818
 H         -1.3971040498        3.6754280401       -1.1561341515
 H         -0.6494489195        3.7954899703        0.4885714984
 H         -0.2504108602        1.4669475198       -1.5132302110
