  62
        -98.94032855
 C         -2.1647249221       -1.2552039027       -0.0922341119
 C         -2.4435107776       -0.0429347517       -0.7717173979
 C         -3.8343177297        0.4342123286       -0.6853053847
 C         -4.7440352372       -0.2835006612       -0.0037162893
 C         -6.1760443073        0.1146968069        0.2026560425
 C         -6.3451575167        0.9232711790        1.4965505426
 C         -5.3420035341        2.0672478937        1.6457741359
 H         -5.5759006443        2.5850517339        2.5784938121
 H         -4.3376811879        1.6508597624        1.7532690184
 C         -5.3496074874        3.0740233372        0.4869475581
 H         -6.2770799544        2.9803315597       -0.0792400879
 H         -5.3233883616        4.0843009137        0.9008422611
 C         -4.1597802954        2.9534705405       -0.4673158971
 H         -3.2279958230        2.9533279316        0.1045070831
 H         -4.1479682144        3.8386582885       -1.1090423261
 C         -4.1616192518        1.7237073112       -1.3841315270
 H         -3.3763983341        1.8680032299       -2.1322324632
 H         -5.1204394747        1.6512614965       -1.9016863601
 H         -6.2219317856        0.2472865378        2.3458901720
 H         -7.3609131549        1.3218585784        1.5243893185
 H         -6.5120340884        0.7001186219       -0.6509547805
 H         -6.7794524466       -0.7921799170        0.2700521435
 O         -4.4420309375       -1.4462862880        0.6279883300
 C         -3.1493634942       -1.9431578801        0.6232547177
 O         -3.0041479838       -2.9908330608        1.2838580288
 O         -1.5941162287        0.6168431175       -1.4235188567
 C         -0.7668662296       -1.8517264202       -0.0444696012
 C          0.2336337207       -0.7734845037        0.2890375641
 C          0.2444073343       -0.2448370232        1.5765520907
 C          1.1237145893        0.7645871774        1.9201073948
 C          2.0117732353        1.2684494474        0.9864073397
 C          2.0094034450        0.7468372780       -0.3003711675
 C          1.1343859095       -0.2773727667       -0.6395394277
 H          1.1263157446       -0.6560068322       -1.6495465032
 N          2.9043935354        1.2574780978       -1.2531774359
 S          4.4874344841        1.5351906420       -0.8014028920
 O          4.5842865621        2.7816932506       -0.0831335646
 O          5.2513148869        1.4518814537       -2.0264973943
 C          4.9002173370        0.1802298044        0.2842263054
 C          5.2203975504        0.4238365620        1.6039396458
 C          5.5028674564       -0.6490839756        2.4344435369
 C          5.4568099995       -1.9406141917        1.9338017513
 C          5.1367102589       -2.1692402478        0.6040254521
 C          4.8545890195       -1.1004568353       -0.2305756735
 H          4.6098096913       -1.2425845555       -1.2708842566
 H          5.1033165172       -3.1750412145        0.2169610128
 H          5.6725304972       -2.7749649075        2.5823795666
 H          5.7545410250       -0.4742820281        3.4680846335
 H          5.2441629637        1.4433676785        1.9528075501
 H          2.8358012968        0.8270499178       -2.1627288522
 H          2.6895691379        2.0707139640        1.2290109810
 H          1.1151068341        1.1681937628        2.9213072726
 H         -0.4582222100       -0.6296556792        2.3035471105
 H         -0.7929765239       -2.5592377428        0.7999546277
 C         -0.3861036789       -2.6642763088       -1.2731481851
 C         -1.4122381253       -3.4878730647       -1.9910481461
 C         -0.8090511619       -2.2916845823       -2.6611005170
 H         -0.1119438430       -2.4579579048       -3.4700326095
 H         -1.4146895805       -1.4079559235       -2.7840233722
 H         -1.1323759761       -4.4709405120       -2.3386322432
 H         -2.4340919958       -3.4214991249       -1.6465866449
 H          0.5987839827       -3.1096224297       -1.1681919484
