  62
        -98.94533781
 C         -2.1382523187       -0.8790269014        0.0511447019
 C         -2.8731805121       -0.2515626593        1.0845560273
 C         -3.5967356816        0.9673144278        0.7059421381
 C         -3.4884227389        1.4449293755       -0.5474178557
 C         -4.1397138106        2.6937513905       -1.0772162056
 C         -5.5887200483        2.4937055313       -1.5425224598
 C         -6.6113079280        2.3016860823       -0.4218187615
 H         -6.5093633534        3.1096878957        0.3033077986
 H         -7.6012062709        2.3920383553       -0.8732932770
 C         -6.5176251670        0.9477769882        0.2955073845
 H         -5.9390551464        0.2512969632       -0.3156822074
 H         -7.5181250869        0.5233396650        0.4042095658
 C         -5.8991320482        1.0116710777        1.6920000403
 H         -5.8482156162       -0.0046161989        2.0908110281
 H         -6.5411024784        1.6003732994        2.3509075533
 C         -4.4852900889        1.6066494356        1.7301558827
 H         -4.5261299750        2.6852777442        1.5792795939
 H         -4.0549794919        1.4066483154        2.7146584987
 H         -5.6223893446        1.6362574627       -2.2185644332
 H         -5.8709922186        3.3798708630       -2.1156018790
 H         -3.5429443811        3.0143821316       -1.9340945869
 H         -4.1042284793        3.4762208272       -0.3183966977
 O         -2.7313049809        0.8382352446       -1.5005693050
 C         -2.0545309699       -0.3444862210       -1.2348592711
 O         -1.4258655131       -0.8049319456       -2.2060854568
 O         -2.9138540168       -0.6833411301        2.2685792606
 C         -1.3812835518       -2.1586666433        0.3581518709
 C          0.0933804617       -1.9555150228        0.1108145296
 C          0.8757106289       -2.8273855024       -0.6340534170
 C          2.2194389166       -2.5629400463       -0.8373550910
 C          2.8125649448       -1.4363989544       -0.2988128667
 C          2.0407550338       -0.5605765415        0.4539095929
 C          0.6965935949       -0.8286399075        0.6568412767
 H          0.0950655329       -0.1411648943        1.2399267575
 N          2.6372687377        0.5822072386        1.0187582848
 S          3.5028410588        1.5969009495       -0.0045132699
 O          3.4635431117        2.8952571113        0.6339896510
 O          3.0121272245        1.5324922657       -1.3617062422
 C          5.1643578827        0.9616767930        0.0799796618
 C          5.7614858176        0.8632784883        1.3216204987
 C          7.0560064755        0.3759840959        1.4042683464
 C          7.7287009198        0.0006067482        0.2507594399
 C          7.1165411153        0.1089594073       -0.9885129784
 C          5.8211240418        0.5947698735       -1.0782143236
 H          5.3019170231        0.6913438668       -2.0186048867
 H          7.6407844393       -0.1827848713       -1.8843531148
 H          8.7361315065       -0.3786531824        0.3179184273
 H          7.5352811857        0.2901574468        2.3661154991
 H          5.2051883167        1.1693061689        2.1917673164
 H          2.0034234685        1.1236477464        1.5893556091
 H          3.8567084452       -1.2243412811       -0.4607628538
 H          2.8133624624       -3.2449588632       -1.4263727188
 H          0.4318070074       -3.7085226121       -1.0668961843
 H         -1.5264765289       -2.3317590149        1.4351537232
 C         -1.9743866202       -3.3230196604       -0.4063854125
 C         -1.8756835581       -4.7142367535        0.1422331453
 C         -3.1933407117       -4.0010487738        0.1411080347
 H         -3.9575308262       -4.3247092532       -0.5495671079
 H         -3.5816271808       -3.6380166547        1.0816315619
 H         -1.7369876645       -5.5320721274       -0.5485074346
 H         -1.3709038973       -4.8433073747        1.0875195040
 H         -1.9171438965       -3.1870646818       -1.4806302522
