  62
        -98.93678569
 C         -2.4183469158       -1.2285677990        0.1164292428
 C         -2.3371324942        0.0477391425       -0.4928074211
 C         -3.6217568814        0.6546845333       -0.8800878297
 C         -4.7683105780       -0.0069147139       -0.6433729410
 C         -6.1425504280        0.5181542728       -0.9399795785
 C         -6.7221192609        1.2686735499        0.2673222518
 C         -5.7680571183        2.3003251300        0.8693222334
 H         -6.2939607724        2.7877096760        1.6930875223
 H         -4.9072221160        1.7827459402        1.2989304205
 C         -5.2745698342        3.3633059757       -0.1220640876
 H         -5.9292601713        3.3892801274       -0.9938666376
 H         -5.3330545942        4.3428743364        0.3569397782
 C         -3.8270159202        3.1793665609       -0.5820933719
 H         -3.5153331508        4.0914271144       -1.0982030511
 H         -3.1762567737        3.0581085763        0.2878216335
 C         -3.5739354356        2.0056698707       -1.5368168802
 H         -2.5586685107        2.1115478078       -1.9311081727
 H         -4.2739220809        2.0532177116       -2.3736741929
 H         -7.6449539051        1.7615634699       -0.0435615836
 H         -6.9700083936        0.5390396151        1.0416027103
 H         -6.7899904784       -0.3281306441       -1.1755797960
 H         -6.0947054387        1.1783121011       -1.8037392226
 O         -4.8071219331       -1.2263703237       -0.0479285193
 C         -3.6432214501       -1.8551786301        0.3618927801
 O         -3.8270647644       -2.9495028744        0.9305273219
 O         -1.2596320293        0.6625451682       -0.7061188862
 C         -1.1781122336       -1.9724207854        0.5810429935
 C         -0.2257438857       -1.0239947757        1.2680544993
 C         -0.6733125319       -0.3276398655        2.3880478984
 C          0.1543481073        0.5635624970        3.0417499072
 C          1.4484977160        0.7718263492        2.5992476924
 C          1.9116636092        0.0689278898        1.4929218551
 C          1.0762310802       -0.8245204812        0.8373293317
 H          1.4489371023       -1.3334072971       -0.0346535848
 N          3.2436107287        0.2292564121        1.0725080260
 S          3.7192907174       -0.0228239073       -0.5230327814
 O          3.0326978570        0.8764296161       -1.4227676728
 O          3.6284508728       -1.4295538585       -0.8238379301
 C          5.4359471294        0.4436073623       -0.3854519722
 C          5.8528266329        1.6742784716       -0.8552762091
 C          7.1866194501        2.0273549173       -0.7204176078
 C          8.0754267538        1.1495910738       -0.1186564365
 C          7.6424687286       -0.0829504007        0.3478920791
 C          6.3109476515       -0.4422855326        0.2146528392
 H          5.9308494663       -1.3917591890        0.5535442007
 H          8.3370563701       -0.7636134640        0.8131803687
 H          9.1126388317        1.4266123579       -0.0150550731
 H          7.5264459461        2.9833667909       -1.0849670531
 H          5.1272023264        2.3207938378       -1.3224387370
 H          3.6660188472        1.0716844942        1.4384756764
 H          2.0940575249        1.4736166652        3.1052237255
 H         -0.2113219824        1.1064567294        3.9006819706
 H         -1.6889615017       -0.4841076253        2.7275950509
 H         -1.5416847453       -2.6883206607        1.3378180892
 C         -0.5109835584       -2.7976891539       -0.5095110769
 C         -1.2891862954       -3.3390692875       -1.6701990353
 C         -0.2765058868       -2.2568646395       -1.8867087786
 H          0.6525412391       -2.5033709390       -2.3812089398
 H         -0.6220449150       -1.2562745852       -2.0950028060
 H         -1.0616222906       -4.3355325277       -2.0177524301
 H         -2.3361346804       -3.0808542664       -1.7375300875
 H          0.2623661588       -3.4472473864       -0.1095361711
