  62
        -98.93593815
 C         -1.4210569261       -1.6133811472        0.3061320856
 C         -1.7429942228       -0.4317972828        1.0244119100
 C         -2.9670426113        0.2767923463        0.6178846256
 C         -3.6928764064       -0.2143335596       -0.4029135388
 C         -4.9470184013        0.3936368661       -0.9645923988
 C         -4.6123277591        1.6208786638       -1.8349614214
 C         -5.1389524507        2.9431784873       -1.2773901732
 H         -4.6708401625        3.7500808238       -1.8452747953
 H         -6.2153713366        2.9987838233       -1.4527097515
 C         -4.8923304858        3.1741062017        0.2161365233
 H         -5.0839045579        4.2314936052        0.4106864217
 H         -5.6226108307        2.6135497420        0.8014841091
 C         -3.4841387455        2.8267767264        0.7162502010
 H         -2.7719567466        2.8639919132       -0.1076174577
 H         -3.1879948115        3.5935082600        1.4354364120
 C         -3.3687364121        1.4721396861        1.4392703680
 H         -4.3117333625        1.2552312331        1.9498685232
 H         -2.5935413400        1.5494824401        2.2076801827
 H         -3.5279051021        1.6761466373       -1.9498311230
 H         -5.0254995730        1.4817755852       -2.8351131956
 H         -5.4354223732       -0.3749653153       -1.5641788589
 H         -5.6130510887        0.6725936500       -0.1507413706
 O         -3.3259299684       -1.3196168639       -1.0986504449
 C         -2.1956569902       -2.0534539643       -0.7671419125
 O         -2.0194560341       -3.0458394462       -1.4996392329
 O         -1.0460669197       -0.0036301127        1.9823228211
 C         -0.1968530785       -2.3825645093        0.7758545249
 C          1.0057704825       -2.0621184565       -0.0781070483
 C          1.0831375985       -2.4595022920       -1.4089215052
 C          2.1882649119       -2.1359365049       -2.1757762543
 C          3.2377148625       -1.4129681438       -1.6349441456
 C          3.1657981069       -1.0055644612       -0.3105369857
 C          2.0570197778       -1.3322489705        0.4593465458
 H          2.0003370042       -0.9978153538        1.4867699579
 N          4.2239183775       -0.2358559098        0.2271981944
 S          4.2988473584        1.3443848841       -0.3290911049
 O          4.4418309316        1.3232409422       -1.7614666429
 O          5.3618585880        1.9772874420        0.4165706832
 C          2.7264182971        2.0454249874        0.1332720510
 C          1.6129352063        1.7435270689       -0.6256878474
 C          0.3762454294        2.2065338137       -0.2077685942
 C          0.2737204191        2.9587570156        0.9512216046
 C          1.4016245000        3.2544613345        1.7004113490
 C          2.6406065249        2.7871350988        1.2944446459
 H          3.5433050985        2.9884061565        1.8490052854
 H          1.3153772303        3.8380346143        2.6028604305
 H         -0.6930988781        3.3075712417        1.2750374795
 H         -0.5049638304        1.9620089546       -0.7805862490
 H          1.7264645596        1.1581708659       -1.5243624100
 H          4.2268667836       -0.2205003375        1.2383290221
 H          4.0971145364       -1.1372877178       -2.2238728418
 H          2.2330970493       -2.4501394877       -3.2077215633
 H          0.2593014214       -3.0055440286       -1.8419083493
 H          0.0042688696       -2.0025749314        1.7865622703
 C         -0.4225690666       -3.8789631363        0.8662594127
 C          0.4695322179       -4.6934611993        1.7525060266
 C         -0.9608070986       -4.4628965824        2.1362783718
 H         -1.6546724082       -5.2873191495        2.0695583818
 H         -1.1675948647       -3.7845446996        2.9513129997
 H          0.7619099247       -5.6784557565        1.4227966987
 H          1.2336782698       -4.1721555760        2.3091778869
 H         -0.7530744382       -4.3251435328       -0.0620071093
