  62
        -98.93586509
 C         -2.2750160838       -1.4597587735        0.1505863434
 C         -2.4802822410       -0.3712434220       -0.7272386750
 C         -3.4785505658        0.6367937201       -0.3137724084
 C         -4.1328126435        0.4794190541        0.8501265081
 C         -5.1754273237        1.3672854834        1.4810533900
 C         -6.2718541691        1.9120398773        0.5526129093
 C         -6.1550165800        3.4143443234        0.2897854599
 H         -7.1384073530        3.7978359355        0.0090229233
 H         -5.8659554876        3.9082295698        1.2198028681
 C         -5.1748003932        3.8059427076       -0.8146403491
 H         -5.5937095073        3.5295807165       -1.7846628358
 H         -5.0778879499        4.8940834151       -0.8009186751
 C         -3.7792204876        3.1889386998       -0.7001338705
 H         -3.4424200305        3.1905346566        0.3361348487
 H         -3.0861545229        3.8233518625       -1.2574896959
 C         -3.6843752037        1.7704141621       -1.2818416705
 H         -2.8292636066        1.7121826311       -1.9624812476
 H         -4.5675665669        1.5574524703       -1.8910773850
 H         -7.2345901747        1.7288542780        1.0323384216
 H         -6.2697640331        1.3615606840       -0.3867997956
 H         -5.6247959298        0.7580990404        2.2686313962
 H         -4.6672476961        2.1956209959        1.9811938714
 O         -3.8912945855       -0.5780351231        1.6759306068
 C         -2.9721953325       -1.5568774697        1.3587381715
 O         -2.8700107208       -2.4580939860        2.2143989029
 O         -1.8717910454       -0.2192645650       -1.8219993058
 C         -1.2882267041       -2.5863822937       -0.1230489325
 C          0.1189462814       -2.1362181158        0.1898509260
 C          0.7912660009       -2.6319107640        1.3010767565
 C          2.0678090379       -2.1930752916        1.6055222928
 C          2.6970955586       -1.2496158476        0.8130034054
 C          2.0276669372       -0.7376776490       -0.2904337678
 C          0.7539119676       -1.1900919814       -0.6019302549
 H          0.2310504649       -0.7741470217       -1.4501441098
 N          2.6510619022        0.2348838864       -1.0948341757
 S          3.2549773493        1.5980791110       -0.3200699329
 O          2.5360698030        1.8778389676        0.9022433465
 O          3.2536487700        2.6416527146       -1.3221516790
 C          4.9405247158        1.1552133066        0.0479098334
 C          5.7515019049        0.7616803362       -0.9986719883
 C          7.0667418284        0.4162280700       -0.7326273832
 C          7.5468309643        0.4716997257        0.5675407688
 C          6.7211283433        0.8723770348        1.6067120353
 C          5.4040280175        1.2188136827        1.3473077232
 H          4.7233722766        1.5304443356        2.1237289327
 H          7.0958829263        0.9149923385        2.6167928615
 H          8.5706562543        0.2012861331        0.7723269420
 H          7.7120071518        0.1045410714       -1.5380596405
 H          5.3395221908        0.7350877629       -1.9936062886
 H          2.0877173622        0.5064530460       -1.8888360376
 H          3.6886457712       -0.8990940963        1.0487358755
 H          2.5777774813       -2.5878322744        2.4710599056
 H          0.2962481378       -3.3515968867        1.9371220096
 H         -1.5492950189       -3.3808877759        0.5885178958
 C         -1.4015322192       -3.1472379784       -1.5269889476
 C         -0.8677461864       -4.5192342605       -1.8035118840
 C         -2.3470185349       -4.2794178016       -1.7869666858
 H         -2.8853863181       -4.2955242609       -2.7227194732
 H         -2.9166995361       -4.6567546002       -0.9499843789
 H         -0.3872752043       -4.7029448730       -2.7521091320
 H         -0.4339272593       -5.0618140591       -0.9772574743
 H         -1.3008262603       -2.3999715769       -2.3024639725
