  62
        -98.94104905
 C          1.9396369001        0.2801602003        0.2227617704
 C          3.0507341699        0.9046348199        0.8486284011
 C          4.2979605300        0.1338824101        0.8775470606
 C          4.3162636503       -1.1201989695        0.3924890695
 C          5.5032409805       -2.0444076693        0.3706095988
 C          6.4369592206       -1.8295259280       -0.8286002508
 C          7.2814783404       -0.5555690779       -0.7759860195
 H          7.8057405102       -0.5081867587        0.1789979106
 H          8.0379711005       -0.6405654071       -1.5586704095
 C          6.4884395402        0.7405313522       -0.9951211085
 H          5.5206924703        0.5031722024       -1.4434115988
 H          7.0207850102        1.3778749029       -1.7047984578
 C          6.2595001099        1.5651210709        0.2718598323
 H          5.6588283498        2.4395679611        0.0081558930
 H          7.2183422298        1.9198630108        0.6560351928
 C          5.5321279098        0.8104243398        1.3925658415
 H          6.2012714499        0.0842406295        1.8534569909
 H          5.2234831696        1.5341751290        2.1508036721
 H          7.1131736108       -2.6864981379       -0.8724144115
 H          5.8382036708       -1.8327938673       -1.7425403609
 H          6.0681988703       -1.9382630100        1.2971590690
 H          5.1055105706       -3.0603620093        0.3201364178
 O          3.2130648105       -1.7127516992       -0.1323360712
 C          2.0073294204       -1.0286134493       -0.2588391608
 O          1.1125018506       -1.7014669389       -0.8024924416
 O          3.0012180496        2.0544141494        1.3598205922
 C          0.6521055700        1.0827675401        0.1467624509
 C         -0.5095671100        0.2678350995        0.6508527000
 C         -0.6991524102        0.1234195182        2.0215347098
 C         -1.7468680101       -0.6311839824        2.5162189689
 C         -2.6233013599       -1.2641295818        1.6528034082
 C         -2.4357532397       -1.1339328705        0.2834550684
 C         -1.3962718997       -0.3585965899       -0.2111463007
 H         -1.2526773396       -0.2767057889       -1.2772410006
 N         -3.3252739994       -1.7797353598       -0.5986758024
 S         -4.9440971695       -1.3877260102       -0.4367895123
 O         -5.4905797196       -2.0623327114        0.7135385370
 O         -5.5522774593       -1.7057005092       -1.7092477927
 C         -4.9383901599        0.3749967995       -0.1645326606
 C         -4.6539225998        1.1963784705       -1.2375335798
 C         -4.5640294801        2.5629986004       -1.0306280686
 C         -4.7501294404        3.0813242892        0.2420285819
 C         -5.0358739004        2.2434785081        1.3085318011
 C         -5.1291470401        0.8755018283        1.1069980698
 H         -5.3501488902        0.1896531475        1.9080042591
 H         -5.1812613606        2.6499385972        2.2963768814
 H         -4.6726320706        4.1451855890        0.4021975229
 H         -4.3446271701        3.2178010712       -1.8587733679
 H         -4.5214744296        0.7566605315       -2.2131253302
 H         -3.0373162893       -1.7241167389       -1.5647273123
 H         -3.4440436898       -1.8615549823        2.0160506575
 H         -1.8805706603       -0.7322889134        3.5825745788
 H         -0.0082302504        0.6072799377        2.6979909104
 H          0.8141516497        1.9144856195        0.8512882117
 C          0.3825418201        1.7155628714       -1.2110369185
 C          1.5089096901        2.2820723923       -2.0212948878
 C          0.7693891704        1.0738033926       -2.5083436791
 H          0.1040442105        1.1882898633       -3.3521050391
 H          1.2640647406        0.1156873527       -2.4735356699
 H          1.3585107301        3.2211924427       -2.5317999570
 H          2.5108215101        2.1471258921       -1.6402312578
 H         -0.5440732900        2.2817651012       -1.2092177182
