  62
        -98.94897126
 C         -1.6326312089       -1.2892559531       -0.2843120961
 C         -0.5590206480       -1.7091866503       -1.1032516051
 C          0.4147470665       -2.6110628535       -0.4774731063
 C          0.2610671306       -2.9482974881        0.8159871521
 C          1.1997465445       -3.8318643308        1.5858169220
 C          2.2917234234       -3.0167751667        2.2914343673
 C          2.9925743355       -2.0024077631        1.3873427014
 H          2.2756828053       -1.2238677302        1.1143026160
 H          3.7664296035       -1.5190024415        1.9897552064
 C          3.6254974830       -2.6013153267        0.1234091250
 H          3.7553514534       -3.6768086384        0.2518991900
 H          4.6197069114       -2.1682004271       -0.0054082022
 C          2.8513426961       -2.3335695570       -1.1683593372
 H          2.6234474799       -1.2674881886       -1.2427504423
 H          3.4966059795       -2.5941123745       -2.0113753078
 C          1.5421310528       -3.1136038768       -1.3347874585
 H          1.2097540976       -2.9872924960       -2.3692736005
 H          1.7181110600       -4.1764083961       -1.1564411881
 H          3.0264480351       -3.7104663074        2.7059770142
 H          1.8351956316       -2.4670913775        3.1182145585
 H          0.6217651703       -4.3724773521        2.3376363778
 H          1.6526715446       -4.5500565250        0.9044916175
 O         -0.7641893492       -2.4981324814        1.5826545799
 C         -1.7227592076       -1.6422711421        1.0620411247
 O         -2.5953023124       -1.2898608412        1.8796687628
 H         -0.4902162173        1.0301147469       -0.3275382060
 C         -1.3621750714        1.5347344967        0.0632448742
 C         -2.6156215131        0.9670643457       -0.1318673852
 C         -3.7299340582        1.6296389854        0.3642603740
 C         -3.5811185598        2.8105818918        1.0719682856
 C         -2.3279692469        3.3430335658        1.3106711431
 C         -1.2072221687        2.6943893089        0.8026775723
 N          0.0818467021        3.2101390340        1.0050813019
 S          1.4038978849        2.1963235209        1.1443807667
 O          1.0433393746        0.8893217038        1.6427325774
 O          2.3517047390        2.9363305880        1.9530167277
 C          2.0713684361        2.0624689590       -0.5031688121
 C          3.2350653412        1.3305815976       -0.6399675387
 C          3.8120518577        1.2069048566       -1.8937158152
 C          3.2166944761        1.8147847242       -2.9879865640
 C          2.0520658902        2.5495403296       -2.8341362633
 C          1.4717161839        2.6802153357       -1.5813864594
 H          0.5646652932        3.2440722289       -1.4390291477
 H          1.5890697068        3.0209321059       -3.6861225922
 H          3.6623502165        1.7138890458       -3.9648750841
 H          4.7175372722        0.6336176387       -2.0116561234
 H          3.6627304498        0.8704951186        0.2368916147
 H          0.1419128160        3.9937807229        1.6377823548
 H         -2.2122589647        4.2479640302        1.8874318682
 H         -4.4538394942        3.3137659667        1.4598754172
 H         -4.7129663132        1.2155842444        0.2118568441
 C         -2.6740504493       -0.3490731465       -0.8662775059
 H         -2.3620934212       -0.1777830215       -1.9075325088
 C         -4.0449540939       -0.9901757114       -0.8644256311
 C         -5.0664951840       -0.5893385316       -1.8855156874
 C         -4.4063714214       -1.9314917949       -1.9729114034
 H         -4.9854661377       -2.8106434957       -1.7334965618
 H         -3.6695810605       -2.0919182430       -2.7463479921
 H         -6.1035880034       -0.5486218553       -1.5885366062
 H         -4.7833355465        0.1615779141       -2.6072876655
 H         -4.3855271984       -1.2392742056        0.1343142882
 O         -0.4253363943       -1.3502013761       -2.3053740637
