  62
        -98.94062186
 C         -1.9846299167       -1.3183170712        0.3188862114
 C         -1.7444142598       -0.3379132731       -0.6702267987
 C         -2.3878707430        0.9776868577       -0.4717575848
 C         -3.1220608058        1.1808237141        0.6380927500
 C         -3.8403521152        2.4308875702        1.0756661814
 C         -2.8884083224        3.5137064524        1.6019796512
 C         -1.6872833048        3.7957933740        0.7041038143
 H         -1.0706247995        4.5451835652        1.2071460209
 H         -1.0860626776        2.8897088389        0.6107681124
 C         -2.0331654253        4.3240481042       -0.6863733665
 H         -1.0987387603        4.6416052378       -1.1534935155
 H         -2.6695258271        5.2058531800       -0.5867554752
 C         -2.7146886703        3.3282419560       -1.6303974287
 H         -2.5963312228        3.7106423710       -2.6480083905
 H         -3.7850607693        3.2737374329       -1.4478169314
 C         -2.1164123463        1.9255339268       -1.6143720358
 H         -2.4494367054        1.3934355552       -2.5131515546
 H         -1.0265189491        1.9895695639       -1.7058870782
 H         -2.5142530763        3.1944774433        2.5781676777
 H         -3.4619396058        4.4312924241        1.7461987011
 H         -4.5125724136        2.1358387346        1.8847457351
 H         -4.4494617902        2.8194672281        0.2651106123
 O         -3.2875499232        0.2134329904        1.5884592404
 C         -2.7423767395       -1.0479468557        1.4559130866
 O         -2.9882153619       -1.8236691892        2.4035068691
 O         -1.0247978468       -0.5418376357       -1.6817285907
 C         -1.4020126794       -2.7100507480        0.1599067686
 C          0.0949825329       -2.6392455760       -0.0167241463
 C          0.7863858836       -3.3905138131       -0.9577513593
 C          2.1621724541       -3.2816560421       -1.0689921013
 C          2.8774779659       -2.4309792268       -0.2469625093
 C          2.1955818388       -1.6760534915        0.7001349116
 C          0.8186644142       -1.7910126068        0.8126355141
 H          0.2899701429       -1.2051108974        1.5553258529
 N          2.9071648973       -0.8142174267        1.5574985940
 S          3.9335046581        0.3368271648        0.9100122140
 O          5.0093991869       -0.3281148455        0.2197983488
 O          4.3099271239        1.1719846857        2.0277282037
 C          2.9630356002        1.2842699549       -0.2478973863
 C          2.4585912666        2.5041455551        0.1569534579
 C          1.7063894128        3.2490758168       -0.7359249155
 C          1.4593397373        2.7556340943       -2.0081162007
 C          1.9594011057        1.5215538728       -2.3942767917
 C          2.7229491808        0.7773691678       -1.5096333452
 H          3.1360047030       -0.1791801364       -1.7836795643
 H          1.7532957350        1.1330870416       -3.3783364650
 H          0.8786377707        3.3379041727       -2.7068631709
 H          1.3162957976        4.2085437077       -0.4362198615
 H          2.6794951195        2.8520996572        1.1533670810
 H          2.3271102096       -0.3877572578        2.2656752672
 H          3.9478308214       -2.3311027486       -0.3280783586
 H          2.6861656087       -3.8697975629       -1.8071793426
 H          0.2484644654       -4.0591493562       -1.6092875281
 H         -1.6102096956       -3.2378043940        1.1025990161
 C         -2.1076135558       -3.4341419487       -0.9688278559
 C         -2.2747999257       -4.9226333033       -0.9291350202
 C         -3.4578175219       -4.0293722370       -0.7101094008
 H         -4.2081416502       -3.9643967736       -1.4837480409
 H         -3.8550283162       -3.9378228122        0.2906750627
 H         -2.2169078359       -5.4739154879       -1.8556087291
 H         -1.8743634094       -5.4494190365       -0.0760976415
 H         -1.9459051122       -2.9602327169       -1.9302724794
