  62
        -98.94620375
 C          1.2088205280        1.4871042721        0.6282355078
 C          2.2264201773        1.3636419232       -0.3501946646
 C          3.2369754559        0.3279516363       -0.0934847654
 C          3.1672511775       -0.4225393218        1.0197583210
 C          4.1513503846       -1.4820543456        1.4387477303
 C          3.9276900119       -2.8590194531        0.7982392391
 C          4.2602693302       -2.9510598406       -0.6912324021
 H          5.2732555954       -2.5839041349       -0.8586530267
 H          4.2523556719       -4.0103576035       -0.9556970800
 C          3.2810111994       -2.2027575469       -1.6068052637
 H          3.0044345525       -2.8429108660       -2.4471904656
 H          2.3636899954       -1.9772194198       -1.0586657195
 C          3.8345965021       -0.9031619696       -2.1902775932
 H          4.6776551728       -1.1241397404       -2.8487077067
 H          3.0506861148       -0.4346177657       -2.7905310949
 C          4.2930103567        0.1113279268       -1.1348989858
 H          5.2225221413       -0.2196334876       -0.6720472531
 H          4.4703183406        1.0681592721       -1.6317905790
 H          4.5611375214       -3.5698431671        1.3342455950
 H          2.8896760289       -3.1567000669        0.9571237602
 H          5.1636226757       -1.1406676595        1.2187063132
 H          4.0507053350       -1.5869802120        2.5215125170
 O          2.1770832981       -0.2683047750        1.9403339336
 C          1.1760140991        0.6723596385        1.7623678127
 O          0.3286469766        0.6907513415        2.6790886548
 O          2.3142016962        2.0787202748       -1.3807880836
 C          0.0832810732        2.5026099971        0.4974490156
 C         -0.8866309877        2.0407738064       -0.5642556763
 C         -0.7108316200        2.3286371620       -1.9131345335
 C         -1.6121593921        1.8566918836       -2.8501979425
 C         -2.6977808149        1.0901762691       -2.4665334293
 C         -2.8840608954        0.7976440511       -1.1200069644
 C         -1.9814833265        1.2761742815       -0.1810740095
 H         -2.1399221496        1.0536875636        0.8635879671
 N         -3.9919533789        0.0438117725       -0.7053302664
 S         -3.8831211637       -1.0359063715        0.5629438102
 O         -5.0391355319       -1.8902001467        0.3936884019
 O         -3.7999675626       -0.3288150688        1.8147531356
 C         -2.4009257725       -1.9787814440        0.2596363227
 C         -1.2845085611       -1.7991394689        1.0483077910
 C         -0.1478025474       -2.5441999017        0.7757099856
 C         -0.1424107852       -3.4454467738       -0.2764910992
 C         -1.2740151452       -3.6138046688       -1.0608691292
 C         -2.4141644157       -2.8759349855       -0.7916919840
 H         -3.3188233506       -2.9944155907       -1.3656573731
 H         -1.2682000129       -4.3181337693       -1.8769333010
 H          0.7458639235       -4.0216705179       -0.4845276985
 H          0.7246750530       -2.4022825022        1.3948090152
 H         -1.3040121097       -1.0868861121        1.8587527771
 H         -4.5616465636       -0.3186677458       -1.4555370164
 H         -3.4008388751        0.7249348997       -3.1993882862
 H         -1.4649400871        2.0858042188       -3.8946898438
 H          0.1468997564        2.9006577066       -2.2258155069
 H         -0.4467800597        2.4846736223        1.4596704937
 C          0.5967133518        3.9084011870        0.2586805910
 C         -0.3313699139        5.0651274122        0.4698463405
 C          0.7950364647        4.8226135783        1.4281793480
 H          1.6374107456        5.4980412220        1.4173699136
 H          0.5568215438        4.4392507153        2.4101381245
 H         -0.2649704600        5.9094739264       -0.1988769340
 H         -1.3350079566        4.8442301734        0.8018303670
 H          1.3156139578        3.9771731457       -0.5468016272
