  62
        -98.93539658
 C         -2.5748437224       -0.0018830456        0.1179639626
 C         -2.4826737208        1.1269623741        0.9659616426
 C         -1.9870320504        2.3760324763        0.3649597186
 C         -1.6354401427        2.3761349029       -0.9324404139
 C         -1.0138247481        3.4993020473       -1.7154162207
 C          0.5204562838        3.3824692957       -1.6804555807
 C          1.1902732562        4.0998564554       -0.5101786039
 H          2.2546572329        3.8567248213       -0.5491440272
 H          1.0897756064        5.1801732675       -0.6395470417
 C          0.6539790083        3.7153249051        0.8711139961
 H          1.4172448841        3.9661205749        1.6112469004
 H          0.5144438055        2.6321025926        0.9160161547
 C         -0.6495527224        4.4420695096        1.2357967189
 H         -0.5439240959        4.8965242103        2.2232935749
 H         -0.8075298842        5.2601783465        0.5329056004
 C         -1.9050792965        3.5599121860        1.2900569291
 H         -2.0029181711        3.1317789856        2.2929600988
 H         -2.7883361960        4.1882000901        1.1302611535
 H          0.9266045295        3.7904557851       -2.6085101541
 H          0.7774564326        2.3203393901       -1.6420537164
 H         -1.3501908036        3.3834356858       -2.7478057363
 H         -1.3465225746        4.4638696495       -1.3427042075
 O         -1.7544863328        1.2747465118       -1.7203691017
 C         -2.1708501154        0.0551984141       -1.2176598430
 O         -2.1514188859       -0.8680557883       -2.0534005554
 H         -0.3334549663       -0.9034243936        0.9177926290
 C         -0.5284198377       -1.9044276089        0.5587073309
 C         -1.8441919930       -2.3324902459        0.4188638310
 C         -2.0715275020       -3.6315559252       -0.0104202627
 C         -1.0040612170       -4.4655226607       -0.3048438219
 C          0.2997330904       -4.0185648672       -0.2099229220
 C          0.5369678297       -2.7123075401        0.2100771654
 N          1.8448446257       -2.1929023493        0.2328544925
 S          2.1262816631       -0.5634827810        0.4974683528
 O          1.9203382463       -0.2130743916        1.8886950606
 O          1.3896826521        0.1975298662       -0.4779676015
 C          3.8679600769       -0.5033755720        0.1234108791
 C          4.2538699926       -0.4649860857       -1.2029271940
 C          5.6053472347       -0.4488650351       -1.5084456241
 C          6.5443078955       -0.4720033049       -0.4876057333
 C          6.1425761925       -0.5073243224        0.8390309475
 C          4.7918730234       -0.5240370774        1.1505776574
 H          4.4321461038       -0.5411288055        2.1667887910
 H          6.8744440380       -0.5215767153        1.6304782232
 H          7.5956090772       -0.4590038538       -0.7281163151
 H          5.9204646594       -0.4176688624       -2.5389674057
 H          3.4870513502       -0.4401181644       -1.9601720527
 H          2.5498166971       -2.8023564016        0.6183437146
 H          1.1270458020       -4.6601298361       -0.4689034926
 H         -1.1949712517       -5.4759349355       -0.6335418242
 H         -3.0808502522       -3.9892952866       -0.1319368573
 C         -2.9271815877       -1.3356040641        0.7547790827
 H         -2.8694194444       -1.1354060184        1.8394706992
 C         -4.3365306643       -1.8400111548        0.4874189520
 C         -5.4205305613       -0.9081835299        0.0366787391
 C         -4.8996232016       -1.9580193557       -0.8960080664
 H         -5.5346951096       -2.8031533278       -1.1183700629
 H         -4.2687442682       -1.6519412218       -1.7150209814
 H         -5.1473582909        0.1205319853       -0.1506475379
 H         -6.4085382541       -1.0298271850        0.4550542884
 H         -4.6336878431       -2.6053131357        1.1982243727
 O         -2.7840086094        1.0858035030        2.1923185696
