  62
        -98.94447739
 C         -2.6609217634       -1.1134142487        0.1575561204
 C         -2.5407344510       -0.1947661465       -0.9135893096
 C         -3.1823433766        1.1134696813       -0.7138653618
 C         -3.8629179823        1.3556032707        0.4202696940
 C         -4.5120793085        2.6613091153        0.7737410075
 C         -3.5532439821        3.5612355318        1.5656942676
 C         -2.1660163203        3.6966616749        0.9366845959
 H         -1.5905654880        4.3825642640        1.5623093569
 H         -1.6543861842        2.7313802807        0.9724853812
 C         -2.1694301205        4.2098519437       -0.5099474777
 H         -3.1222359861        4.6929441653       -0.7308649760
 H         -1.3881059269        4.9657302379       -0.6135141503
 C         -1.8880958785        3.1370725488       -1.5640767029
 H         -0.9824604231        2.5862805192       -1.2909865730
 H         -1.6868002274        3.6393452465       -2.5146194789
 C         -3.0212611516        2.1312472769       -1.8074213422
 H         -3.9568836549        2.6669578409       -1.9799778071
 H         -2.7761701279        1.5665389200       -2.7117328306
 H         -4.0072652193        4.5491790607        1.6611056548
 H         -3.4332143352        3.1429894414        2.5676237103
 H         -4.8280127153        3.1630086373       -0.1386484609
 H         -5.3901805493        2.4533044853        1.3873305625
 O         -3.9981429650        0.4341382502        1.4068687661
 C         -3.3783632677       -0.7990202127        1.3166581790
 O         -3.5473925276       -1.5283488893        2.3137520680
 H         -0.0470607034       -1.5736181212       -1.5372102021
 C          0.3385217433       -1.7440336973       -0.5436767734
 C         -0.5051780100       -2.2336730322        0.4431811079
 C          0.0038305591       -2.4054973161        1.7260805087
 C          1.3200837718       -2.0884426636        2.0112146557
 C          2.1499115114       -1.5757102148        1.0293667752
 C          1.6468033061       -1.3920878872       -0.2512061215
 N          2.4698263797       -0.8135423513       -1.2436719553
 S          2.9083490515        0.7826894054       -0.9237453774
 O          1.9265934646        1.4468408190       -0.0964532360
 O          3.1768038954        1.3804185410       -2.2137970013
 C          4.4424610787        0.6113962292       -0.0359654553
 C          4.5652433028        1.1272028726        1.2389805894
 C          5.7702553887        0.9780786685        1.9083201826
 C          6.8244728213        0.3198809165        1.2936923774
 C          6.6852852626       -0.1909131308        0.0115090650
 C          5.4839233082       -0.0444704858       -0.6631728760
 H          5.3325978582       -0.4223847636       -1.6604289045
 H          7.5073279414       -0.7023685674       -0.4627515518
 H          7.7600951553        0.2040581192        1.8175711266
 H          5.8801703579        1.3742516121        2.9050568570
 H          3.7153073163        1.6249349462        1.6781540668
 H          2.0473895274       -0.8560406120       -2.1618637437
 H          3.1705486852       -1.3070225935        1.2490078092
 H          1.7004807134       -2.2297879078        3.0114075814
 H         -0.6520811194       -2.7665644058        2.5055313362
 C         -1.9694873606       -2.4709429267        0.1621919386
 H         -2.3937813515       -3.0189217755        1.0135141444
 C         -2.2127548815       -3.2757858569       -1.0975178208
 C         -1.9246327852       -4.7460857714       -1.0817339678
 C         -3.3413850480       -4.2602438311       -1.1274834886
 H         -3.8987090248       -4.3754308875       -2.0449936335
 H         -3.9442970796       -4.3567719177       -0.2362257916
 H         -1.5073733929       -5.1987592537       -1.9680399602
 H         -1.5653780875       -5.1732607070       -0.1577163259
 H         -2.0114028539       -2.7305205550       -2.0098268981
 O         -1.9372793034       -0.4315287993       -1.9950746894
