  62
        -98.93979472
 C         -2.6804311931       -0.7838264654        0.3188597393
 C         -2.7135953467        0.3195765387        1.2051609734
 C         -3.3371458632        1.5411834050        0.6862787362
 C         -3.8337590200        1.5563904620       -0.5643366630
 C         -4.5209136440        2.7183504314       -1.2289829048
 C         -3.5590455307        3.7292282741       -1.8684039086
 C         -2.7839594038        4.6033693222       -0.8816889601
 H         -2.3170940618        5.4025262004       -1.4607047270
 H         -3.4820745169        5.0702987386       -0.1862564978
 C         -1.6930044952        3.8599013935       -0.0981203000
 H         -1.4660597248        2.9149306600       -0.5978411073
 H         -0.7750323193        4.4518799127       -0.1016107692
 C         -2.0447509171        3.5773998483        1.3627381130
 H         -1.2200311992        3.0189208814        1.8131103839
 H         -2.1468802792        4.5205324088        1.9039097902
 C         -3.3298456352        2.7615742369        1.5569647210
 H         -4.2031589709        3.3802879866        1.3525728429
 H         -3.3713927272        2.4288420070        2.5970043302
 H         -2.8565502468        3.1871165219       -2.5057810465
 H         -4.1537492457        4.3829620644       -2.5105700244
 H         -5.1504484587        2.2974244807       -2.0158257249
 H         -5.1602936655        3.2278666030       -0.5075777651
 O         -3.7788307092        0.4759965972       -1.3870635825
 C         -3.1779918896       -0.7081032958       -0.9824556833
 O         -3.1614770118       -1.5949946116       -1.8559539572
 O         -2.2404625276        0.2858900601        2.3738415214
 C         -2.0254356470       -2.0719796020        0.7866309350
 C         -0.7543040519       -2.2933460627        0.0027754824
 C         -0.5130200939       -3.4139314895       -0.7790414194
 C          0.6748693419       -3.5323394684       -1.4812515985
 C          1.6415494622       -2.5465644020       -1.4181879320
 C          1.4149764726       -1.4246639440       -0.6297163991
 C          0.2271653721       -1.3110316589        0.0762211065
 H          0.0477096602       -0.4396895043        0.6941810487
 N          2.3836495889       -0.4039914738       -0.5662899988
 S          3.9930041715       -0.8882284807       -0.3804478777
 O          4.5066385940       -1.2653463606       -1.6734456336
 O          4.0937484579       -1.8925516812        0.6548719728
 C          4.7535842667        0.6329316691        0.1491764653
 C          5.0511203798        1.5913322648       -0.8011378207
 C          5.6243701559        2.7844245578       -0.3911074953
 C          5.8890038654        2.9979564115        0.9537489201
 C          5.5859669695        2.0259780834        1.8952546604
 C          5.0104961339        0.8310477774        1.4923458158
 H          4.7652167952        0.0444928058        2.1880246635
 H          5.7954693790        2.1933670856        2.9395077674
 H          6.3373326836        3.9265220764        1.2700582897
 H          5.8638089232        3.5419291509       -1.1198548054
 H          4.8372863197        1.3775405521       -1.8353104860
 H          2.1413151917        0.3005760786        0.1174090309
 H          2.5701064495       -2.6333502430       -1.9590054231
 H          0.8498005547       -4.4069273482       -2.0898327617
 H         -1.2551514277       -4.1919436456       -0.8464193598
 H         -1.7454054778       -1.8895230095        1.8347417462
 C         -2.9931305363       -3.2335579264        0.7389674034
 C         -2.7601201439       -4.4322944330        1.6076795130
 C         -3.8805359744       -3.4874670055        1.9192325416
 H         -4.8947787287       -3.8113762153        1.7405365800
 H         -3.7758617053       -2.8318072519        2.7714075349
 H         -3.0057843342       -5.4082421469        1.2174658784
 H         -1.8927032639       -4.4210619229        2.2503470622
 H         -3.4175929891       -3.3886144208       -0.2459543792
