  62
        -98.92725756
 C          2.1699778098        0.3650651590        0.7382307600
 C          3.3107808598        0.9109595692        0.1032459001
 C          4.4778791498        0.0135047392       -0.0438948001
 C          4.4043859099       -1.2463033908        0.4180884097
 C          5.4470523399       -2.3350443808        0.3737761095
 C          6.8852848399       -1.9283343908        0.7308002796
 C          7.8338185199       -1.9299134506       -0.4693485604
 H          8.8556306399       -2.0609924606       -0.1063084204
 H          7.5980056599       -2.7921705005       -1.0965049606
 C          7.8055313999       -0.6624627904       -1.3217914501
 H          8.2800191998        0.1533279695       -0.7721263700
 H          8.4108296499       -0.8496190802       -2.2118640402
 C          6.4147647999       -0.2016564804       -1.7624244401
 H          5.8035438199       -1.0551491503       -2.0534604903
 H          6.5359394399        0.4212505398       -2.6511854600
 C          5.6799316398        0.6337465594       -0.7034124799
 H          6.3813637798        0.9526345093        0.0728403601
 H          5.2993509298        1.5529385395       -1.1594994298
 H          6.8853437998       -0.9524306609        1.2136601398
 H          7.2628098899       -2.6482958810        1.4587899495
 H          5.0909802499       -3.0941733110        1.0740153193
 H          5.4266767999       -2.7938224606       -0.6179185806
 O          3.2753911699       -1.7362185310        1.0096203396
 C          2.1490871898       -0.9573832411        1.1855651897
 O          1.2060744498       -1.5438891112        1.7570043696
 H         -1.7377539102        0.5630440489        1.0031372299
 C         -1.3767134702        0.7742534491        0.0078597800
 C         -0.0386735502        1.0818129292       -0.1926986900
 C          0.4069223598        1.3279447094       -1.4876730399
 C         -0.4714398101        1.2594997596       -2.5533928299
 C         -1.8039455001        0.9475942795       -2.3503030700
 C         -2.2622570202        0.7093112093       -1.0593255201
 N         -3.6238770102        0.4487583692       -0.8291435701
 S         -4.0861536902       -0.5949833211        0.4134839396
 O         -3.9326504202        0.0868844387        1.6737243998
 O         -3.4110220401       -1.8662807110        0.2768382394
 C         -5.8200651601       -0.7664104510        0.0349230696
 C         -6.2724533701       -1.9042941509       -0.6053072507
 C         -7.6199546001       -2.0089024109       -0.9137598907
 C         -8.4861347501       -0.9781681510       -0.5818767605
 C         -8.0171118602        0.1579895489        0.0611127797
 C         -6.6717885502        0.2682031089        0.3739733498
 H         -6.2635141002        1.1266500088        0.8811210099
 H         -8.6940727002        0.9560286788        0.3199100699
 H         -9.5339622401       -1.0621038410       -0.8232532106
 H         -7.9878853801       -2.8922163808       -1.4104010809
 H         -5.5631893501       -2.6827564909       -0.8369181808
 H         -4.1261537101        0.2366743593       -1.6809194802
 H         -2.4868278001        0.8930392597       -3.1845427500
 H         -0.1136766201        1.4487573198       -3.5543127799
 H          1.4441394098        1.5797006695       -1.6466780998
 C          0.8964252098        1.1554290590        0.9876261501
 H          0.3994941698        0.6402884588        1.8264189900
 C          1.1629479797        2.5877753589        1.4345924304
 C          0.8485039897        3.7881195890        0.5987821806
 C          0.0128250197        3.4783873488        1.8018013605
 H          0.1037626797        4.1057369986        2.6756527806
 H         -0.9827507703        3.0926094388        1.6370919904
 H          1.5366777797        4.6181987090        0.6415631008
 H          0.4166633498        3.6308064192       -0.3766331895
 H          2.0479228397        2.6556518688        2.0591808304
 O          3.3774945398        2.0882633893       -0.3329509597
