  62
        -98.94850313
 C          1.2534693601        1.5132465582        0.5030131620
 C          2.1592308119        1.1598734245       -0.5260492818
 C          3.1842042155        0.1709255551       -0.1640240968
 C          3.2117904247       -0.3272642980        1.0852083699
 C          4.1797619745       -1.3643503783        1.5749780560
 C          3.6131018145       -2.7816728217        1.4168858360
 C          3.0437952603       -3.0756050694        0.0284502404
 H          2.7267566807       -4.1214317695        0.0257616966
 H          2.1394068942       -2.4807701195       -0.1249902102
 C          4.0253913478       -2.8381648973       -1.1276817705
 H          5.0483241707       -2.8300104156       -0.7484319620
 H          3.9444141431       -3.6738243130       -1.8262260591
 C          3.7709609208       -1.5619566884       -1.9324274154
 H          4.3522173302       -1.6220114567       -2.8567202082
 H          2.7145451481       -1.5137889573       -2.2110968242
 C          4.1474760792       -0.2468104570       -1.2382117146
 H          4.1193802774        0.5468426012       -1.9906842611
 H          5.1642178060       -0.3143249774       -0.8457525030
 H          4.4065065400       -3.4965085912        1.6451103265
 H          2.8100158754       -2.9196723674        2.1447775371
 H          4.3751681089       -1.1787452841        2.6328508028
 H          5.1123537383       -1.2716396415        1.0216965801
 O          2.3278520713        0.0390320035        2.0479174597
 C          1.3075056926        0.9345858912        1.7697648276
 O          0.5243382770        1.1346082785        2.7219436355
 O          2.1149159220        1.6429703724       -1.6878107008
 C          0.1190479575        2.4773438893        0.2130264872
 C         -0.7826334228        1.9234383810       -0.8658755891
 C         -1.4672568323        2.7251665412       -1.7714620550
 C         -2.3001932037        2.1542442784       -2.7183914841
 C         -2.4843182551        0.7841471879       -2.7751970617
 C         -1.8059517112       -0.0255033020       -1.8715902051
 C         -0.9682066990        0.5505604751       -0.9312529796
 H         -0.4264381032       -0.0911743662       -0.2549731603
 N         -1.9449484653       -1.4208181330       -1.8906164401
 S         -1.8720482163       -2.2914413610       -0.4661448958
 O         -0.5217840172       -2.3350695020        0.0350062557
 O         -2.4609892599       -3.5695269057       -0.8052529759
 C         -2.9503822284       -1.4168686112        0.6539833573
 C         -2.4422369665       -0.6701173791        1.6964483019
 C         -3.3204538749        0.0356920999        2.5048005159
 C         -4.6833706171       -0.0180176532        2.2610928952
 C         -5.1804381803       -0.7813485162        1.2148987892
 C         -4.3079005723       -1.4843253179        0.4016983101
 H         -4.6548642353       -2.0982703186       -0.4135143173
 H         -6.2416209560       -0.8272355008        1.0308271908
 H         -5.3603710982        0.5355229103        2.8923840517
 H         -2.9216862751        0.6258365093        3.3147717895
 H         -1.3781950759       -0.6377945454        1.8728836990
 H         -2.6464478401       -1.7775167630       -2.5218769443
 H         -3.1336564140        0.3433403584       -3.5157194310
 H         -2.8191348019        2.7873042043       -3.4219195466
 H         -1.3414448738        3.7951579159       -1.7409547748
 H         -0.4711450195        2.5400919232        1.1402733334
 C          0.6593076960        3.8551070921       -0.1137958626
 C         -0.0986163067        5.0837804740        0.2880372389
 C          1.1648328207        4.7154071536        1.0040762400
 H          2.0494591847        5.3113366560        0.8373300165
 H          1.0898148088        4.3178400755        2.0061159179
 H         -0.0798377094        5.9390160146       -0.3706503947
 H         -1.0322966014        4.9484621399        0.8128688550
 H          1.2098921839        3.8727017297       -1.0470798086
