  62
        -98.94031254
 C          1.4437074682        1.5640396009       -0.0635125977
 C          2.4244263744        1.0791521236        0.8283568564
 C          3.1546589017       -0.1365862912        0.4189913804
 C          2.8312591817       -0.7214978118       -0.7499096924
 C          3.4094094354       -1.9763243182       -1.3472310354
 C          2.8867332830       -3.2553362884       -0.6720118379
 C          2.7938184519       -3.1921364150        0.8503034484
 H          2.2864393739       -4.0981948973        1.1917127214
 H          2.1675083500       -2.3448747300        1.1363898787
 C          4.1319605185       -3.1054048708        1.5804293347
 H          4.7286461770       -3.9882365880        1.3398887831
 H          3.9219835249       -3.1297849562        2.6530212599
 C          4.9708594837       -1.8607132086        1.2872011773
 H          5.4479647079       -1.9326589962        0.3136732637
 H          5.7770620428       -1.8296064220        2.0261995165
 C          4.2178980932       -0.5396448881        1.4125701336
 H          4.9494470802        0.2779889674        1.4096587940
 H          3.7406633398       -0.4929888545        2.3983676179
 H          3.5286207040       -4.0877618697       -0.9644277490
 H          1.8823536105       -3.4468480366       -1.0531865737
 H          4.4943460496       -1.9337820105       -1.3155504875
 H          3.1091305815       -1.9901194357       -2.3969081454
 O          1.8554321205       -0.2320810558       -1.5666541425
 C          1.1497378868        0.9172180272       -1.2636525041
 O          0.3099554734        1.2521949550       -2.1179906784
 O          2.6805087196        1.6319143582        1.9340195953
 C          0.6636976528        2.8143576824        0.2974331934
 C         -0.8131574351        2.5076350698        0.3224252167
 C         -1.7709844081        3.3045762622       -0.2896248540
 C         -3.1094858597        2.9508923849       -0.2491561669
 C         -3.5232931879        1.8057439267        0.4052961638
 C         -2.5733950286        1.0045261942        1.0278374766
 C         -1.2348993572        1.3620778410        0.9878680972
 H         -0.4974533675        0.7348459113        1.4743004622
 N         -2.9829668167       -0.1636974048        1.7053417142
 S         -3.7181672432       -1.3797391954        0.8210416350
 O         -4.8971747566       -0.8474431240        0.1879628186
 O         -3.9256980214       -2.4601326139        1.7580822747
 C         -2.5320644772       -1.8797843566       -0.4142072870
 C         -2.2818409801       -1.0448833655       -1.4851579025
 C         -1.3383894344       -1.4269381745       -2.4255623901
 C         -0.6716543792       -2.6337759846       -2.2833900681
 C         -0.9384970184       -3.4642040147       -1.2052163236
 C         -1.8707122793       -3.0814204467       -0.2548921531
 H         -2.1072205047       -3.6937440202        0.6004897144
 H         -0.4257843176       -4.4076313063       -1.1011858534
 H          0.0604727744       -2.9248138887       -3.0206698372
 H         -1.1140075396       -0.7675746065       -3.2481158925
 H         -2.8159103988       -0.1128131278       -1.5741979872
 H         -2.2524223683       -0.5690905085        2.2737464019
 H         -4.5587243513        1.5077339547        0.4274164508
 H         -3.8418658338        3.5771104237       -0.7357807817
 H         -1.4707637996        4.2004039983       -0.8075813546
 H          0.9795176563        3.0752540021        1.3186942795
 C          1.0325073940        3.9521549134       -0.6312866879
 C          0.9547430088        5.3719015853       -0.1573897962
 C          2.2893165369        4.7232741311       -0.3653831278
 H          2.8913399027        5.0348445271       -1.2057524273
 H          2.8662753799        4.4451926155        0.5046296012
 H          0.6425520668        6.1333008098       -0.8562251531
 H          0.6280386178        5.5437024327        0.8570851846
 H          0.7851663761        3.7410770754       -1.6656483237
