  62
        -98.94604613
 C         -1.4551549894       -1.0666318686        0.0844399077
 C         -2.3785384606       -0.7123242274        1.0949384192
 C         -3.0056610867        0.6070642660        0.9515992229
 C         -2.6485564193        1.4082694800       -0.0688069610
 C         -3.1780174814        2.7923521913       -0.3313212816
 C         -4.5081164136        2.8163281055       -1.0970336934
 C         -5.7322480898        2.3836490736       -0.2892457903
 H         -5.7715185507        2.9505010041        0.6416046943
 H         -6.6137449740        2.6562142473       -0.8729546666
 C         -5.7901404020        0.8806807930        0.0178828971
 H         -5.1088456126        0.3457364408       -0.6476792675
 H         -6.7957922789        0.5059260859       -0.1855483000
 C         -5.4559296812        0.5155954960        1.4642640400
 H         -6.2111028428        0.9351894375        2.1327488238
 H         -5.4901350390       -0.5727826438        1.5597669480
 C         -4.0734003689        0.9891229728        1.9317078841
 H         -4.0792480070        2.0674795361        2.0906309398
 H         -3.8455036104        0.4973209267        2.8809440080
 H         -4.6692538710        3.8417708399       -1.4375374640
 H         -4.4136683148        2.1829277959       -1.9819417262
 H         -2.4269019367        3.3064217310       -0.9347053662
 H         -3.2903818972        3.3285071197        0.6115891177
 O         -1.7210745135        1.0480111544       -0.9950035281
 C         -1.1188800751       -0.2035316800       -0.9597414346
 O         -0.3166777827       -0.4146310434       -1.8852907059
 O         -2.6566537901       -1.4556007668        2.0753089035
 C         -0.7658674586       -2.4172961931        0.1493945798
 C          0.7301121150       -2.2245117828        0.1859989977
 C          1.6178426200       -2.9483719899       -0.5982850831
 C          2.9775232953       -2.6920938740       -0.5392110118
 C          3.4808300455       -1.7144476001        0.2983316838
 C          2.6015255219       -0.9926766443        1.0955322728
 C          1.2430251047       -1.2563465883        1.0410703512
 H          0.5618683860       -0.6876664206        1.6626854286
 N          3.1003659806        0.0208444527        1.9390623882
 S          4.0318000484        1.1998731082        1.1931356578
 O          5.3702853449        0.6975237354        1.0092135271
 O          3.9069868627        2.3703372721        2.0336345884
 C          3.2610753831        1.4757729237       -0.3903666644
 C          2.0232275687        2.0870547226       -0.4135450776
 C          1.3893949062        2.2716756994       -1.6302624056
 C          1.9967037986        1.8343373015       -2.7966104577
 C          3.2384202037        1.2212471750       -2.7566278052
 C          3.8799691432        1.0374947818       -1.5424794360
 H          4.8463041167        0.5663739130       -1.4669919783
 H          3.7047237882        0.8792698923       -3.6665590853
 H          1.4907770310        1.9663742144       -3.7395952936
 H          0.4163992891        2.7349362194       -1.6652741707
 H          1.5775990299        2.4149379171        0.5131806146
 H          2.3837259083        0.4553565461        2.5029502783
 H          4.5344852108       -1.4923913342        0.3471402216
 H          3.6544283919       -3.2583704488       -1.1603380885
 H          1.2453313349       -3.7076801117       -1.2658014206
 H         -1.0813794783       -2.8644464267        1.1040430910
 C         -1.2364175174       -3.3049079340       -0.9836761511
 C         -1.2764245732       -4.7934556372       -0.8142983249
 C         -2.5524225145       -4.0087317218       -0.8499488039
 H         -3.1860983924       -4.0892298619       -1.7204469692
 H         -3.0963713459       -3.8709362512        0.0733275751
 H         -1.0364179923       -5.4161564832       -1.6628737363
 H         -0.9576668952       -5.1982594997        0.1343237117
 H         -0.9798758172       -2.9045864782       -1.9580535028
