  62
        -98.94477252
 C         -1.1606811752       -1.7764817745       -0.6733374770
 C         -1.2110900022       -0.4531623434       -1.1802683487
 C         -2.5029955646        0.2399940504       -1.0320993417
 C         -3.5397625451       -0.3951849512       -0.4595343362
 C         -4.9031872225        0.1944079006       -0.2421674543
 C         -5.0238410453        0.8478459580        1.1403816028
 C         -3.8818886569        1.8089062078        1.4707685660
 H         -4.0986945982        2.2508151500        2.4461299073
 H         -2.9508368925        1.2462026069        1.5780578959
 C         -3.6724334463        2.9255780651        0.4390093402
 H         -4.5660057284        3.0384670350       -0.1767709082
 H         -3.5224443911        3.8671462993        0.9718422853
 C         -2.4499520273        2.7239493807       -0.4588042989
 H         -2.2381776058        3.6730514385       -0.9605923868
 H         -1.5894267787        2.4767739932        0.1692813961
 C         -2.5877777185        1.6495123776       -1.5462399313
 H         -3.5163971845        1.8046350184       -2.1004896635
 H         -1.7488924832        1.7640183990       -2.2392236254
 H         -5.0381537122        0.0602074590        1.8972995334
 H         -5.9748964933        1.3820149539        1.1874475628
 H         -5.1021057486        0.9285379390       -1.0205884757
 H         -5.6375034011       -0.6097626853       -0.3178351579
 O         -3.4544199009       -1.6643314353        0.0161659551
 C         -2.2659920606       -2.3699863070       -0.0589652721
 O         -2.3227046579       -3.5153603406        0.4351272126
 H          0.9919405068       -0.2668717633        0.1518283427
 C          1.3263122842       -1.0729034188        0.7830000829
 C          0.9555963957       -2.3750011911        0.4775019538
 C          1.3822196968       -3.4048062616        1.3073464755
 C          2.1523568959       -3.1299749333        2.4241972313
 C          2.5098674274       -1.8298771703        2.7327745501
 C          2.0923649770       -0.7929948298        1.9041377590
 N          2.4727637474        0.5278647985        2.1589299477
 S          1.6635787432        1.8309375085        1.5003749502
 O          2.1933435622        2.9685957437        2.2267845204
 O          0.2297440041        1.6695634883        1.5744863157
 C          2.2330031925        1.9152486304       -0.1840202113
 C          3.4656808400        1.3868946316       -0.5114584102
 C          3.9106861920        1.4879206024       -1.8193326121
 C          3.1243309768        2.1180053689       -2.7710349508
 C          1.8950319920        2.6529721382       -2.4232239909
 C          1.4431241149        2.5528333398       -1.1176749828
 H          0.4857485401        2.9437170303       -0.8148950759
 H          1.2805142536        3.1396640906       -3.1635263605
 H          3.4701026108        2.1902153389       -3.7903845392
 H          4.8660091010        1.0691375698       -2.0927560254
 H          4.0520259579        0.8965870646        0.2481846500
 H          2.8954971457        0.7173027841        3.0540234844
 H          3.1033387425       -1.6150918700        3.6081718698
 H          2.4725925377       -3.9364155474        3.0663706145
 H          1.0893311888       -4.4202802952        1.0842020706
 C          0.0891568362       -2.6431266630       -0.7253651883
 H         -0.2764776890       -3.6794594127       -0.6459140234
 C          0.8402494576       -2.5300834530       -2.0452912193
 C          2.1638272435       -1.8495529861       -2.1994649602
 C          2.0815507943       -3.3430283974       -2.2693422636
 H          2.2171233382       -3.8294000314       -3.2233866984
 H          2.4630639580       -3.9029522261       -1.4286025306
 H          2.3310492081       -1.2900044437       -3.1068037250
 H          2.6147193991       -1.4006467596       -1.3289266233
 H          0.1581572131       -2.4434223106       -2.8850387024
 O         -0.2511006710        0.1296246041       -1.7443083430
