  62
        -98.94395433
 C         -2.1900744679       -0.9958646273        0.2412831529
 C         -1.6115761095       -0.2255020703       -0.7986996545
 C         -2.0986187273        1.1557309807       -0.9197414724
 C         -2.9384578508        1.6526413960        0.0047247674
 C         -3.5526812653        3.0262314766        0.0058165597
 C         -2.6411679127        4.1231291918        0.5714436296
 C         -1.4988183288        4.5558630344       -0.3478471888
 H         -1.8958925415        4.7814010311       -1.3384933067
 H         -1.0936211914        5.4836510872        0.0611000728
 C         -0.3586029482        3.5356685649       -0.4678680927
 H         -0.3979885470        2.8273935321        0.3633223257
 H          0.6016575973        4.0520824234       -0.3867298274
 C         -0.3356202228        2.7514630123       -1.7788180375
 H          0.4915246796        2.0403784867       -1.7230382880
 H         -0.1411706075        3.4328653141       -2.6108520912
 C         -1.6220836876        1.9738072851       -2.0835863837
 H         -2.4070119271        2.6633185096       -2.3966205663
 H         -1.4134033069        1.2851076394       -2.9064881705
 H         -2.2286931051        3.7802604588        1.5235772355
 H         -3.2678048711        4.9951366515        0.7738972914
 H         -4.4464107900        2.9639570781        0.6308696137
 H         -3.8556290900        3.2917817472       -1.0078642488
 O         -3.3609715384        0.9220894112        1.0719713274
 C         -3.0008997126       -0.4070843312        1.2135804749
 O         -3.4607744132       -0.9528402468        2.2394475846
 O         -0.7554438106       -0.6613974689       -1.6097411851
 C         -1.8404266430       -2.4628474914        0.4486347709
 C         -0.3412587426       -2.6074805430        0.3998150370
 C          0.3489052778       -3.3609493149       -0.5399711252
 C          1.7332975012       -3.3511053366       -0.5675870859
 C          2.4540859654       -2.5714031678        0.3196964689
 C          1.7700811616       -1.8292597151        1.2724796327
 C          0.3891593284       -1.8747505480        1.3276374593
 H         -0.1382902400       -1.2781645418        2.0629894972
 N          2.5059648371       -0.9410345303        2.1154105715
 S          2.3525449491        0.6439704710        1.5423248387
 O          3.1116600685        1.4669722900        2.4614796528
 O          0.9635878553        1.0205743100        1.3859896861
 C          3.1788965512        0.5507100589       -0.0268375623
 C          2.4768117362        0.1550393476       -1.1483201011
 C          3.1571419471        0.0430882571       -2.3517434641
 C          4.5137817003        0.3209311550       -2.4121293934
 C          5.2036160395        0.7130260467       -1.2743958710
 C          4.5321138941        0.8265598060       -0.0682086460
 H          5.0215488005        1.1290529937        0.8430415136
 H          6.2590883342        0.9272387838       -1.3232193089
 H          5.0357320330        0.2301847306       -3.3517309329
 H          2.6152066951       -0.2663716667       -3.2309950911
 H          1.4218356533       -0.0642125051       -1.0781329840
 H          2.1788929520       -0.9529261114        3.0731895714
 H          3.5299450350       -2.5196784824        0.2803401752
 H          2.2559763072       -3.9342526978       -1.3097446380
 H         -0.2000119433       -3.9266013016       -1.2749580852
 H         -2.1688764890       -2.6870981335        1.4772422159
 C         -2.5817516827       -3.4259402594       -0.4648974384
 C         -3.9590415521       -3.1026342989       -0.9609007029
 C         -2.8094462303       -3.1519590337       -1.9197188814
 H         -2.7565095339       -3.9822336485       -2.6086392273
 H         -2.4320745254       -2.2253934453       -2.3206521046
 H         -4.6935180775       -3.8933513697       -0.9910341952
 H         -4.3673661711       -2.1365474597       -0.6997734002
 H         -2.4035055435       -4.4599745782       -0.1857093238
