  62
        -98.93833970
 C          2.2545534241        1.0008237048        0.3868461079
 C          2.4764624592        0.1151512754       -0.6928215550
 C          3.3369581476       -1.0513588387       -0.4189709157
 C          3.8438405408       -1.2256018686        0.8157837331
 C          4.7097290824       -2.3264919121        1.3928050677
 C          5.4241713725       -3.3190413955        0.4792317356
 C          6.5370113357       -2.7140817638       -0.3759133632
 H          7.3619887590       -2.4267071203        0.2808504537
 H          6.9054269361       -3.4874585961       -1.0533747337
 C          6.1473621465       -1.4835516555       -1.1911743263
 H          5.8721087519       -0.6692317676       -0.5177776775
 H          7.0312730360       -1.1569142594       -1.7456607058
 C          5.0195881027       -1.6970718482       -2.1989053650
 H          5.2659967065       -2.5345043953       -2.8544175724
 H          4.9552238097       -0.7968180685       -2.8157550718
 C          3.6268145846       -1.9419919177       -1.5926637790
 H          2.8791549115       -1.6963956948       -2.3525595043
 H          3.4893112073       -2.9870510104       -1.3255919263
 H          5.8804543113       -4.0682941573        1.1319863084
 H          4.7052208772       -3.8419407713       -0.1444525166
 H          5.4504770516       -1.8223257888        2.0217363386
 H          4.0608631856       -2.8883132410        2.0740979860
 O          3.5697824220       -0.3584439295        1.8364426767
 C          2.7832436244        0.7647958599        1.6529972147
 O          2.6253873678        1.4568508811        2.6805892431
 H         -0.1024376438        0.3026017500        1.2348785741
 C         -0.6301987118        0.8061517774        0.4329377485
 C          0.0020644360        1.8430783435       -0.2423940646
 C         -0.6932701303        2.4923286277       -1.2537675238
 C         -1.9760834209        2.0942930444       -1.5892953446
 C         -2.5926314588        1.0486926925       -0.9278337866
 C         -1.9123888943        0.4015102558        0.0957127633
 N         -2.5265280728       -0.6689193525        0.7706489775
 S         -4.0657849146       -0.4277563942        1.3990233776
 O         -4.2860344712        0.9585909450        1.7409269520
 O         -4.1867276474       -1.3832501861        2.4786885537
 C         -5.1502997810       -0.9120346639        0.0729728309
 C         -6.1012441696       -0.0288123696       -0.3993553690
 C         -6.9395387625       -0.4338878420       -1.4265490052
 C         -6.8133541814       -1.7078423922       -1.9588485358
 C         -5.8545547180       -2.5836255873       -1.4712857546
 C         -5.0140159498       -2.1854036282       -0.4441923869
 H         -4.2585332733       -2.8351976962       -0.0346934163
 H         -5.7591233646       -3.5734901332       -1.8877209249
 H         -7.4661751523       -2.0206622205       -2.7583885954
 H         -7.6856774141        0.2450298539       -1.8069161747
 H         -6.1589486092        0.9534082272        0.0419807148
 H         -1.9307324101       -1.1060101383        1.4589011123
 H         -3.5880746777        0.7314392643       -1.1919392301
 H         -2.5017874276        2.6039387104       -2.3821920738
 H         -0.2296594649        3.3084476655       -1.7828958322
 C          1.3947507981        2.2353967851        0.1907652771
 H          1.3167265519        2.7110371022        1.1802445791
 C          2.0758914295        3.1981642401       -0.7599326766
 C          1.8640860948        4.6750524643       -0.6230487016
 C          3.1782779352        4.0674529957       -0.2369546057
 H          4.0370664594        4.2473387020       -0.8660612490
 H          3.4172982829        3.9850755606        0.8138159003
 H          1.8239133529        5.2760707069       -1.5189340323
 H          1.2129915605        5.0162889527        0.1677273582
 H          2.1936379824        2.7848982615       -1.7548843435
 O          1.9757135858        0.2810861395       -1.8346573340
