  62
        -98.93869438
 C          1.2016672742        1.8607355972       -0.2080039799
 C          1.2680618767        0.5542454587       -0.7433533766
 C          2.5800125647       -0.1262769137       -0.6717669574
 C          3.5937887301        0.4768970354       -0.0246302820
 C          4.9793911755       -0.0470346630        0.2479988771
 C          5.0001648025       -1.1289202869        1.3377399008
 C          3.9538299503       -2.2268984911        1.1689519108
 H          4.0365945007       -2.8956878275        2.0294614026
 H          2.9578883878       -1.7818922571        1.1957285113
 C          4.1013341510       -3.0673990977       -0.0971015553
 H          5.1099762774       -3.4841285054       -0.1369490462
 H          3.4023274981       -3.9027326126       -0.0166081773
 C          3.8163358599       -2.3416488557       -1.4152015466
 H          3.6415120186       -3.1055036024       -2.1781786573
 H          4.6782042973       -1.7690769056       -1.7485988671
 C          2.5781755344       -1.4513759632       -1.3944490012
 H          2.3042608640       -1.2127213069       -2.4295492789
 H          1.7281819538       -2.0147707492       -0.9967188002
 H          5.9972565790       -1.5727093211        1.3586869789
 H          4.8271376657       -0.6434650818        2.3013921792
 H          5.4315192932       -0.4163714771       -0.6675132908
 H          5.5720527210        0.8038894250        0.5913964241
 O          3.4582423028        1.7107937293        0.5434618919
 C          2.2933488817        2.4400504929        0.4422070287
 O          2.3452516362        3.5714544802        0.9665988045
 H         -2.1131799911        0.9056976533       -0.7497636943
 C         -2.0634398193        1.2470655409        0.2699564103
 C         -1.0919075355        2.1537564777        0.6652745326
 C         -1.0471542228        2.5514411927        1.9994093216
 C         -1.9638991980        2.0655777327        2.9119352651
 C         -2.9361538577        1.1642386626        2.5146627425
 C         -2.9789055383        0.7500870279        1.1879758482
 N         -3.9553755593       -0.1616414835        0.7634191866
 S         -3.6682695648       -1.2795742097       -0.4368231565
 O         -3.6188255160       -0.6388392804       -1.7263387605
 O         -4.7376418289       -2.2448723906       -0.2688923912
 C         -2.1291048494       -2.1078458422       -0.0720840903
 C         -1.6576145519       -2.1842347304        1.2221006855
 C         -0.5203974982       -2.9341308796        1.4783142752
 C          0.1107572600       -3.6092266015        0.4470032325
 C         -0.3770375789       -3.5256375045       -0.8479970521
 C         -1.5038751795       -2.7650432281       -1.1114657566
 H         -1.9060743307       -2.6615146802       -2.1062864712
 H          0.1176324991       -4.0459128189       -1.6530908749
 H          0.9903988842       -4.1989296201        0.6538909994
 H         -0.1331214552       -2.9905807095        2.4833401954
 H         -2.1600007131       -1.6588475421        2.0178019544
 H         -4.5472370162       -0.5367475595        1.4896778499
 H         -3.6574629009        0.7854082340        3.2229684506
 H         -1.9222289603        2.3888741206        3.9409750131
 H         -0.2782955392        3.2454628039        2.3093892845
 C         -0.0633414166        2.7003100873       -0.2937278004
 H          0.2235347328        3.7002496856        0.0601574815
 C         -0.5710072834        2.8215449091       -1.7151209702
 C         -1.5432306458        3.9107828553       -2.0503238525
 C         -0.1327662250        3.9838933195       -2.5518813129
 H          0.0510606645        3.8216749025       -3.6034625579
 H          0.5333150688        4.7038455669       -2.0984607566
 H         -2.3322569102        3.6965445914       -2.7550580286
 H         -1.8335855760        4.5818516923       -1.2558420289
 H         -0.6893450217        1.8696973919       -2.2172497742
 O          0.2910710094       -0.0390966031       -1.2717159463
