  62
        -98.93928686
 C         -2.2858571689       -1.0915601474       -0.0293211826
 C         -1.9750486240        0.2599265482       -0.3214978520
 C         -2.8732973893        1.2621314866        0.2716072812
 C         -3.8991034058        0.8744683328        1.0495161802
 C         -4.8843640136        1.7793723659        1.7386378222
 C         -6.0462550322        2.2340224849        0.8446646882
 C         -5.6809124199        3.2639694746       -0.2250203794
 H         -6.6179530672        3.6545240640       -0.6266255640
 H         -5.1527040069        4.0971546902        0.2394437564
 C         -4.8440410351        2.7045694789       -1.3840235927
 H         -4.9124107829        1.6143775807       -1.3907434840
 H         -5.2539593802        3.0570974530       -2.3331389977
 C         -3.3688035253        3.1051234371       -1.3525427745
 H         -2.8630829189        2.6236944281       -2.1936120334
 H         -3.2783056807        4.1862397811       -1.4801339484
 C         -2.6331472471        2.7023283343       -0.0677932885
 H         -2.9391240277        3.3440721180        0.7585156900
 H         -1.5590176185        2.8290137056       -0.2291574364
 H         -6.4848386644        1.3543236285        0.3683908833
 H         -6.8050957877        2.6729756010        1.4963616851
 H         -5.2954837520        1.2099510832        2.5748786456
 H         -4.3642077663        2.6521800872        2.1343543232
 O         -4.1537837364       -0.4333077739        1.3203671098
 C         -3.3645773775       -1.4384401295        0.7887608954
 O         -3.7229075286       -2.5892929401        1.1115368617
 O         -1.0129425642        0.6316202730       -1.0429050334
 C         -1.4429079098       -2.2494845251       -0.5442485832
 C         -0.1873076138       -2.3341149534        0.2912007543
 C         -0.1941938521       -3.1224714365        1.4389646095
 C          0.9212063992       -3.1954151009        2.2514113438
 C          2.0626098704       -2.4801774782        1.9368078406
 C          2.0800378242       -1.6881192187        0.7940272013
 C          0.9600756809       -1.6202825862       -0.0239306597
 H          0.9838305783       -0.9768433642       -0.8877956006
 N          3.2465300721       -0.9857479680        0.4424545533
 S          3.1110805674        0.5689806417       -0.2083314273
 O          2.2588251840        1.3848434078        0.6271275532
 O          2.7717952715        0.4659364053       -1.6034760745
 C          4.8080079227        1.1013855175       -0.0545852178
 C          5.1790209935        1.9091599604        1.0034004947
 C          6.5066197219        2.2894996780        1.1242762140
 C          7.4366887116        1.8546402575        0.1922562254
 C          7.0496317403        1.0443234973       -0.8649017384
 C          5.7236764237        0.6625568035       -0.9923014186
 H          5.3736058507        0.0424218779       -1.8008306273
 H          7.7748695188        0.7103177094       -1.5892422970
 H          8.4690567160        2.1515709548        0.2887123892
 H          6.8093810153        2.9224192127        1.9428522826
 H          4.4194733484        2.2289958394        1.6988203963
 H          3.9328954295       -0.9932037497        1.1858880267
 H          2.9350446172       -2.5337769278        2.5705852942
 H          0.9011692273       -3.8101792930        3.1386479028
 H         -1.0948886390       -3.6635917156        1.6930959993
 H         -2.0337655460       -3.1545910550       -0.3461524306
 C         -1.1709301815       -2.1739212526       -2.0315036154
 C         -0.7313522751       -3.4133158610       -2.7494152791
 C         -2.1053754340       -2.8611187250       -2.9794423853
 H         -2.3206563265       -2.3854538838       -3.9245722335
 H         -2.9460852492       -3.3915897438       -2.5558879534
 H          0.0009118328       -3.3182256760       -3.5364377932
 H         -0.6406201334       -4.3192662085       -2.1691221525
 H         -0.7498829093       -1.2294538374       -2.3508170715
