  62
        -98.94263722
 C         -1.9563551071       -1.5549885733       -0.0489803106
 C         -1.5776740385       -0.2771308307       -0.5329707202
 C         -2.6683531916        0.7051455969       -0.6571662762
 C         -3.9268190148        0.3460701910       -0.3493767215
 C         -5.1175206995        1.2585974546       -0.3916558705
 C         -5.3479306868        1.9302630111        0.9692796828
 C         -4.0887089066        2.5579832299        1.5670772486
 H         -4.3767990909        3.0295019600        2.5092393151
 H         -3.3757954766        1.7663870661        1.8096122786
 C         -3.4068602372        3.5943607024        0.6632163698
 H         -4.1068317731        3.9362058701       -0.1001194980
 H         -3.1396110232        4.4628332758        1.2690374739
 C         -2.1211386857        3.1067602617       -0.0078706430
 H         -1.4554952240        2.6745820167        0.7433674773
 H         -1.6163824927        3.9770319257       -0.4345276944
 C         -2.2988819793        2.0812851151       -1.1343817336
 H         -3.0291856725        2.4491484006       -1.8579061277
 H         -1.3341233809        1.9709172689       -1.6378492351
 H         -6.1180843959        2.6948778879        0.8517357909
 H         -5.7209910834        1.1779131426        1.6682807496
 H         -4.9648428460        2.0132266709       -1.1606332046
 H         -5.9972163688        0.6652558710       -0.6472392290
 O         -4.2538232175       -0.8956021211        0.0928429999
 C         -3.2782107459       -1.8590758570        0.2871426786
 O         -3.7066067456       -2.9323016786        0.7572385329
 H          1.6406723668       -2.3453425409       -0.7475555604
 C          1.5135178351       -1.9704802062        0.2559078372
 C          0.2772055557       -2.0584042621        0.8739019970
 C          0.1357028040       -1.5351905410        2.1561004868
 C          1.2022847288       -0.9344391196        2.7969658444
 C          2.4346856644       -0.8429152298        2.1738985762
 C          2.5847304861       -1.3597445762        0.8945454620
 N          3.8315459941       -1.2717227566        0.2464890914
 S          4.5789816028        0.2230646132        0.1503186242
 O          5.6039931515        0.0597063044       -0.8567020038
 O          5.0372970647        0.6098187493        1.4614942819
 C          3.3333494231        1.3595110758       -0.4256614841
 C          2.6595239570        2.1551309410        0.4772972082
 C          1.6808811100        3.0154991157        0.0079940086
 C          1.3926054051        3.0610882952       -1.3462042485
 C          2.0728765196        2.2492155943       -2.2393113792
 C          3.0514374513        1.3866176966       -1.7763500411
 H          3.6107252981        0.7478536404       -2.4412864418
 H          1.8398978960        2.2824652513       -3.2917291086
 H          0.6321339543        3.7346308871       -1.7092713400
 H          1.1441149056        3.6452157617        0.6995565718
 H          2.9167136741        2.0945569032        1.5222272776
 H          3.8356367322       -1.7092964101       -0.6640000578
 H          3.2760104077       -0.3708517542        2.6548310235
 H          1.0748115070       -0.5308563700        3.7903875160
 H         -0.8307280521       -1.5941645365        2.6392760255
 C         -0.9323121659       -2.6514795356        0.1958462716
 H         -1.4163799689       -3.3415651252        0.9061993500
 C         -0.5887853637       -3.4724049705       -1.0381909686
 C         -1.6205750991       -3.7416210307       -2.0913401254
 C         -0.4490203720       -2.8605032106       -2.3986933984
 H          0.3177486447       -3.2439180271       -3.0565862411
 H         -0.6119722910       -1.7982876844       -2.4892822504
 H         -1.6571773440       -4.7259812947       -2.5334426541
 H         -2.5910661627       -3.2833125566       -1.9687247691
 H          0.0797547169       -4.2949619069       -0.8012048558
 O         -0.4039509081        0.0419914573       -0.8497674669
