  62
        -98.93804911
 C          2.0003686953        0.7914340021        0.6076273480
 C          2.0147809328        0.0498040040       -0.5966929843
 C          2.1145604633       -1.4121995718       -0.4593614128
 C          2.1324569338       -1.9605218826        0.7669644371
 C          2.1672224620       -3.4225979622        1.1368755131
 C          3.1339472868       -4.3276157677        0.3586169469
 C          4.4208793683       -3.6439998933       -0.1262052666
 H          4.5290313843       -2.6690611825        0.3519528078
 H          5.2775126033       -4.2511124260        0.1721060347
 C          4.4714434124       -3.4761410487       -1.6468238196
 H          5.5125132032       -3.3442675242       -1.9507858258
 H          4.1083263182       -4.3950680455       -2.1118513055
 C          3.6844275390       -2.2901769267       -2.2036403401
 H          3.7008738887       -2.3567802064       -3.2940038237
 H          4.1807379595       -1.3548749392       -1.9314352513
 C          2.2221743277       -2.1894908500       -1.7390983221
 H          1.6654747360       -1.6147108298       -2.4843386891
 H          1.7644148970       -3.1719202919       -1.6506103055
 H          2.6170306444       -4.7572121756       -0.4983892049
 H          3.3896430208       -5.1569043354        1.0202317948
 H          1.1500778243       -3.8152384349        1.0436991271
 H          2.4223873096       -3.4401156575        2.1993144216
 O          2.0849212847       -1.2080322651        1.9042085234
 C          2.0143658708        0.1731250906        1.8548955437
 O          1.9770455193        0.7283789310        2.9737843552
 O          1.9469775359        0.5818769864       -1.7358412467
 C          1.8653359701        2.3027593057        0.5618892718
 C          0.5895778305        2.6623236513       -0.1616731831
 C          0.5054645778        3.6566634731       -1.1272168695
 C         -0.6938333625        3.9016088584       -1.7741877393
 C         -1.8231757237        3.1601006216       -1.4820085124
 C         -1.7538166519        2.1772717787       -0.5000622216
 C         -0.5594071823        1.9513482474        0.1616315341
 H         -0.5158277461        1.1832013859        0.9215152344
 N         -2.8879576602        1.4218140983       -0.1524192727
 S         -2.6649884385       -0.1797946383        0.3346228919
 O         -2.3198935290       -0.1962523195        1.7353994791
 O         -1.7585403653       -0.8631789442       -0.5604338385
 C         -4.3261370532       -0.7959031038        0.1260905095
 C         -5.2678817359       -0.4937519069        1.0918279801
 C         -6.5700540373       -0.9351273517        0.9190048615
 C         -6.9074470987       -1.6666520691       -0.2103001279
 C         -5.9512746817       -1.9640876783       -1.1695653722
 C         -4.6471395465       -1.5240062974       -1.0036926084
 H         -3.8678808919       -1.7353194023       -1.7184372451
 H         -6.2151886513       -2.5355612103       -2.0447806139
 H         -7.9214641326       -2.0094664767       -0.3421071891
 H         -7.3152315298       -0.7078247198        1.6640842634
 H         -4.9551732845        0.0690685512        1.9558606113
 H         -3.6322855943        1.4995013980       -0.8326261157
 H         -2.7507103147        3.3372204486       -2.0047646967
 H         -0.7444125031        4.6706805023       -2.5299978221
 H          1.3814511199        4.2293842299       -1.3840674714
 H          1.7714660113        2.6319005165        1.6078481760
 C          3.1037603257        2.9310571521       -0.0421952231
 C          3.5340592178        4.3048131057        0.3736308141
 C          4.3166835625        3.1073408743        0.8193559610
 H          5.2888013964        2.9319913088        0.3836474241
 H          4.2381595313        2.7962984696        1.8512788587
 H          3.9740711159        4.9542034728       -0.3679969433
 H          2.9306742427        4.8159271521        1.1085219700
 H          3.2595713759        2.6311875376       -1.0720943818
