  62
        -98.93323667
 C         -2.5669447337       -1.1888468056        0.3758086104
 C         -3.1015715979       -0.5388756405       -0.7654494960
 C         -4.1685690346        0.4424027195       -0.5019500808
 C         -4.5727252405        0.6663127736        0.7601648496
 C         -5.6141833462        1.6672023940        1.1672322371
 C         -4.9826151477        3.0288590204        1.4887657647
 C         -4.0134451562        3.5286759799        0.4173007450
 H         -3.6550452065        4.5099276385        0.7360739345
 H         -3.1457805280        2.8655117659        0.3836837258
 C         -4.6216935096        3.6380519093       -0.9878805751
 H         -5.7101705324        3.6473503759       -0.9203839319
 H         -4.3161898680        4.5897291256       -1.4277553489
 C         -4.1832130133        2.5383065081       -1.9568404489
 H         -3.0929824855        2.4619089708       -1.9557583647
 H         -4.4899637320        2.8318418419       -2.9642397303
 C         -4.7637820972        1.1437350599       -1.6906551803
 H         -5.8495275761        1.2086527919       -1.5956824543
 H         -4.5305873110        0.5166192160       -2.5559020606
 H         -5.7841033925        3.7570969916        1.6258359312
 H         -4.4365873450        2.9433006838        2.4312205139
 H         -6.3415457012        1.7727082231        0.3646801383
 H         -6.1213597057        1.2922710721        2.0579295705
 O         -4.0328269519        0.0278825017        1.8303563912
 C         -3.0165740121       -0.8948574062        1.6665104967
 O         -2.5997103071       -1.3847045362        2.7380683717
 H          0.4623175951       -1.1666397229        1.7349370938
 C          0.6998982974       -1.0879943270        0.6808736629
 C         -0.1941680132       -1.6056158504       -0.2520802406
 C          0.1258949427       -1.4757291329       -1.5985381608
 C          1.3051470088       -0.8618288642       -1.9858536262
 C          2.1885657502       -0.3535386049       -1.0518759079
 C          1.8763448669       -0.4619728680        0.2965456977
 N          2.7521393473        0.0741335579        1.2579333271
 S          4.3692613781       -0.3735187436        1.1848856002
 O          4.5262864365       -1.6932341013        0.6184741682
 O          4.8744820168       -0.1860254989        2.5274379306
 C          5.1063068672        0.8426614369        0.1138716709
 C          4.9274275895        2.1772450808        0.4214265451
 C          5.5087675240        3.1349195222       -0.3940827997
 C          6.2574992311        2.7442903331       -1.4944819694
 C          6.4301625757        1.4003076523       -1.7878149698
 C          5.8503285928        0.4370754533       -0.9767350141
 H          5.9519940515       -0.6190832484       -1.1690774379
 H          7.0124211066        1.0988394419       -2.6436849159
 H          6.7090104519        3.4921586644       -2.1270508975
 H          5.3762529539        4.1810882984       -0.1697061269
 H          4.3404498789        2.4388975942        1.2861079621
 H          2.4073667796        0.0013558691        2.2044806992
 H          3.1056725545        0.1252551041       -1.3540910313
 H          1.5347078355       -0.7741150570       -3.0369614243
 H         -0.5585230317       -1.8213296836       -2.3520699616
 C         -1.4553301752       -2.2307732908        0.2935108558
 H         -1.2407538130       -2.4678479853        1.3470864765
 C         -1.9387069177       -3.5485489161       -0.3018108779
 C         -2.2912939826       -3.8069900231       -1.7345608765
 C         -1.0734695686       -4.4436481951       -1.1378775293
 H         -1.0945639654       -5.5050138315       -0.9394514638
 H         -0.1045352941       -4.0713187592       -1.4325991457
 H         -3.1528080478       -4.4326628394       -1.9222675641
 H         -2.1871413199       -3.0059596872       -2.4459103822
 H         -2.5807410354       -4.0510381650        0.4186086445
 O         -2.7286667021       -0.7485393178       -1.9451971116
