  62
        -98.94892975
 C          2.2321964135        0.8607884938        0.0798514777
 C          1.5905506757        0.1223909132       -0.9432611700
 C          1.9984035619       -1.2823354066       -1.0751998102
 C          2.9007999259       -1.7888826761       -0.2159895178
 C          3.4111918336       -3.2004817704       -0.2370695336
 C          2.5836156929       -4.1249653536        0.6648371735
 C          1.0745819135       -4.0271507417        0.4401373284
 H          0.6007553633       -4.7662142347        1.0910855406
 H          0.7176748412       -3.0473197131        0.7663982208
 C          0.6274283973       -4.2626557040       -1.0092447993
 H          1.4120744456       -4.7797661636       -1.5639569949
 H         -0.2490778831       -4.9140839420       -0.9992597883
 C          0.2253549172       -2.9866687600       -1.7515332950
 H         -0.4483554150       -2.4057565222       -1.1164407679
 H         -0.3275361935       -3.2719491486       -2.6508165877
 C          1.3824710564       -2.0794948655       -2.1901620088
 H          2.1416861981       -2.6732011342       -2.7047377187
 H          0.9820948181       -1.3458991995       -2.8960937266
 H          2.9117432875       -5.1526792436        0.4948665150
 H          2.7902687537       -3.8707104647        1.7072356509
 H          3.3930616386       -3.5676018100       -1.2616478973
 H          4.4435640940       -3.1936455255        0.1182739586
 O          3.4488082012       -1.0652271832        0.7952493860
 C          3.1190943769        0.2678813318        0.9755374261
 O          3.6755548911        0.8098779271        1.9547108193
 H          0.3620762688        0.9485086545        1.9067801212
 C         -0.2257831814        1.6486918894        1.3247159596
 C          0.4154494822        2.4905854141        0.4239823659
 C         -0.3557556206        3.3852352543       -0.3063842567
 C         -1.7338621088        3.4001964816       -0.1721539162
 C         -2.3713414915        2.5123995273        0.6756504985
 C         -1.6045917094        1.6365060322        1.4313562244
 N         -2.2689706173        0.6575081059        2.2313805267
 S         -2.2745271348       -0.8234506608        1.4110168672
 O         -3.0125740297       -1.7387748178        2.2565341734
 O         -0.9306912289       -1.2444206576        1.0782139173
 C         -3.2101458453       -0.4371811482       -0.0479255578
 C         -2.5591655661       -0.0129855210       -1.1893815117
 C         -3.3200767449        0.3337862410       -2.2956065348
 C         -4.7029279521        0.2553402615       -2.2407197842
 C         -5.3394428000       -0.1713126784       -1.0844008096
 C         -4.5874437446       -0.5188876707        0.0255802461
 H         -5.0327954194       -0.8580964386        0.9463964306
 H         -6.4151756042       -0.2307612007       -1.0442575951
 H         -5.2875296199        0.5294858201       -3.1048007500
 H         -2.8198840843        0.6692605546       -3.1897973614
 H         -1.4812241234        0.0501318752       -1.2068383526
 H         -1.8106995846        0.5098844407        3.1218264863
 H         -3.4455455391        2.4827323615        0.7581338820
 H         -2.3193395502        4.0939620355       -0.7551501535
 H          0.1225920572        4.0582232627       -0.9989849353
 C          1.9069514500        2.3343496709        0.2657889214
 H          2.3950222709        2.6405017702        1.2026465585
 C          2.4840368617        3.1428690315       -0.8774341367
 C          2.8639249390        4.5777294223       -0.6712045481
 C          3.9289090879        3.5354624177       -0.8290190490
 H          4.5003417092        3.5127847334       -1.7446942831
 H          4.4929946778        3.2386151442        0.0434987578
 H          2.7085823129        5.2744049382       -1.4809176124
 H          2.7109763221        4.9993005812        0.3106964612
 H          2.0777153800        2.8509877833       -1.8389942238
 O          0.7353495871        0.6183149199       -1.7223364308
