  62
        -98.94198437
 C          1.5228783991        1.5185220207        0.1959460757
 C          2.4170980477        0.8616792001        1.0803591169
 C          3.2402374971       -0.2026045812        0.4972755219
 C          3.1000314759       -0.5158845867       -0.8033779988
 C          3.9340245589       -1.5073565770       -1.5691275564
 C          3.4593003967       -2.9615261365       -1.4576502835
 C          3.6808240810       -3.6165727913       -0.0940799689
 H          3.4815234425       -4.6833257799       -0.2138112880
 H          4.7287442401       -3.5136220019        0.1896368234
 C          2.7865316822       -3.0676844813        1.0267232105
 H          1.9510028439       -2.5143818781        0.5920542355
 H          2.3597051861       -3.8984177307        1.5926389410
 C          3.5108093261       -2.1653301981        2.0261260863
 H          4.2689864198       -2.7422410874        2.5604039299
 H          2.7816831791       -1.8095903786        2.7587483037
 C          4.1860007507       -0.9393701430        1.3964307409
 H          4.4832794860       -0.2597058795        2.1988935883
 H          5.0776835255       -1.2419278309        0.8472868314
 H          2.3996018950       -2.9976983367       -1.7146713910
 H          4.0042437160       -3.5397400534       -2.2075395136
 H          3.8827938262       -1.2097764598       -2.6190040505
 H          4.9713838463       -1.4357466839       -1.2401111225
 O          2.1740455164        0.0800006944       -1.5983279482
 C          1.3473994810        1.0941134555       -1.1223030338
 O          0.5288381998        1.5043929318       -1.9640702395
 O          2.5306405023        1.1619192903        2.2988337867
 C          0.7168245329        2.6785730593        0.7526262441
 C         -0.7367560999        2.5459908980        0.3800866980
 C         -1.3681002165        3.3812868670       -0.5320276450
 C         -2.6988522207        3.1866774433       -0.8574215988
 C         -3.4306736726        2.1686498175       -0.2740552635
 C         -2.8087757022        1.3274396426        0.6394875413
 C         -1.4730793659        1.5201017196        0.9607413838
 H         -0.9875057388        0.8582350541        1.6678581070
 N         -3.5584785876        0.2955878444        1.2456581482
 S         -4.1183918197       -0.9545236311        0.2878013447
 O         -4.7440343430       -0.4033929917       -0.8855573488
 O         -4.9569645132       -1.7591583070        1.1464474997
 C         -2.6774496990       -1.9042711326       -0.1702326763
 C         -2.5241646537       -3.1713399311        0.3582294102
 C         -1.4079084197       -3.9139996178        0.0116683715
 C         -0.4625451036       -3.3753211499       -0.8474816104
 C         -0.6225662254       -2.0960985690       -1.3581855694
 C         -1.7412822173       -1.3497864016       -1.0209071611
 H         -1.8820366391       -0.3533014343       -1.4106835171
 H          0.1159745354       -1.6615814085       -2.0150119282
 H          0.4026877304       -3.9594693262       -1.1196325129
 H         -1.2766678986       -4.9074307888        0.4090574117
 H         -3.2868684011       -3.5483940902        1.0202607322
 H         -3.1179793774       -0.0909764905        2.0689220376
 H         -4.4638535631        1.9980321422       -0.5279418357
 H         -3.1740020451        3.8376633910       -1.5756000304
 H         -0.8084662875        4.1682636863       -1.0099581364
 H          0.7987420931        2.5674803640        1.8466197847
 C          1.2933761094        4.0460987020        0.4142228438
 C          2.7740899526        4.2487202188        0.3026695328
 C          1.9089181618        4.3606619466       -0.9149746903
 H          1.7425791137        5.3414848064       -1.3361015121
 H          1.9489950997        3.5730639082       -1.6512132049
 H          3.2024617839        5.1492095486        0.7162838744
 H          3.4067213967        3.3786441599        0.4022245475
 H          0.7340168054        4.8454761418        0.8908137517
