  62
        -98.93480052
 C          2.1622951497        0.7968310701        0.7444328392
 C          2.4250909295        0.3253499597       -0.5666854007
 C          3.2356336396       -0.8990989602       -0.6500545105
 C          3.6356763499       -1.5230204298        0.4710790096
 C          4.4638694501       -2.7771015497        0.5438216898
 C          5.9742517600       -2.5340157395        0.4147975995
 C          6.4585017397       -2.1652421299       -0.9882683407
 H          7.5473389198       -2.2452932497       -0.9816116409
 H          6.0827273697       -2.8967712801       -1.7042611804
 C          6.0709730395       -0.7509614201       -1.4423567110
 H          5.7800290996       -0.1563184298       -0.5734013912
 H          6.9391712293       -0.2616237401       -1.8893246613
 C          4.9431039893       -0.7030600605       -2.4729974809
 H          4.7232512591        0.3445529694       -2.6925069611
 H          5.2712253392       -1.1805713107       -3.3988283508
 C          3.6419127795       -1.3728204605       -2.0129373904
 H          2.8464678093       -1.0965637208       -2.7094432404
 H          3.7515644096       -2.4570978005       -2.0211002802
 H          6.2624447801       -1.7491666593        1.1180091292
 H          6.4781632702       -3.4541734194        0.7195310896
 H          4.2681070103       -3.2226049494        1.5217116700
 H          4.1383043100       -3.4768430799       -0.2265953399
 O          3.3030955901       -1.0752493695        1.7122789995
 C          2.5697663500        0.0869251304        1.8756465693
 O          2.3415181202        0.3800834608        3.0691770693
 O          2.0193149693        0.8793684194       -1.6170361008
 C          1.3603316296        2.0693059901        1.0024877690
 C         -0.0066344005        1.8950982897        0.3875369093
 C         -0.4121187708        2.3312348993       -0.8674294107
 C         -1.6779410208        2.0298452790       -1.3422048104
 C         -2.5665891106        1.2835041891       -0.5917997701
 C         -2.1693293303        0.8246642095        0.6569270200
 C         -0.9077834003        1.1392016198        1.1339600497
 H         -0.5990184501        0.7663602601        2.1038612497
 N         -3.0603777801        0.0467028396        1.4261392604
 S         -3.5748492500       -1.3935617806        0.7230730409
 O         -3.9624452397       -2.2404619604        1.8307712812
 O         -2.5772543801       -1.9287544208       -0.1760323292
 C         -5.0315996503       -0.9223066011       -0.1855949090
 C         -5.1000503205       -1.1576173315       -1.5447635589
 C         -6.2441107907       -0.7829239318       -2.2323180088
 C         -7.2930384206       -0.1835937817       -1.5518484488
 C         -7.2093193204        0.0429845187       -0.1859070089
 C         -6.0692737402       -0.3302130210        0.5078120410
 H         -5.9639188700       -0.1755004107        1.5685840210
 H         -8.0270107804        0.5094903987        0.3393383911
 H         -8.1809521607        0.1088578580       -2.0897530887
 H         -6.3104822908       -0.9583501921       -3.2940418788
 H         -4.2554039605       -1.6186529815       -2.0316005889
 H         -2.7168662899       -0.1389164001        2.3585195904
 H         -3.5494405407        1.0458620889       -0.9644083398
 H         -1.9713589611        2.3784738087       -2.3207074405
 H          0.2625730990        2.8754687592       -1.5023082810
 H          1.2067144098        2.0759102603        2.0929547090
 C          2.1888476994        3.3145477201        0.7179139285
 C          2.5839199991        3.8219829597       -0.6348461317
 C          1.6227922991        4.6054747299        0.2077783683
 H          1.9726102291        5.5232503000        0.6567280379
 H          0.5826148091        4.6246605597       -0.0751371716
 H          3.5904686190        4.2009755898       -0.7451094320
 H          2.2350224490        3.2892724095       -1.5034835715
 H          2.9597799795        3.4058862704        1.4804237283
