  62
        -98.94490801
 C         -1.8669899401       -1.0824363613       -0.1887955195
 C         -3.0141139048       -1.1564138656        0.6470284679
 C         -4.2389493905       -0.5366601719        0.1332143498
 C         -4.2329880540        0.0387233305       -1.0824633607
 C         -5.4065487529        0.6894241216       -1.7626145599
 C         -5.6417362490        2.1472014085       -1.3439460419
 C         -6.2071549459        2.3365856152        0.0642523759
 H         -6.5266330587        3.3776351301        0.1435436290
 H         -7.0943132638        1.7141537939        0.1851238098
 C         -5.2094297457        2.0397540030        1.1926638535
 H         -4.1934508684        2.0371871444        0.7904468200
 H         -5.2543953201        2.8375016121        1.9375629907
 C         -5.4546551836        0.7210470166        1.9262724075
 H         -6.4137311766        0.7646694343        2.4470883385
 H         -4.6691627869        0.5960461381        2.6759518807
 C         -5.4469228786       -0.5169337715        1.0200464292
 H         -5.4087056777       -1.4059408739        1.6542306247
 H         -6.3578788586       -0.5516771399        0.4228020175
 H         -4.7000233612        2.6937488389       -1.4347700819
 H         -6.3470501873        2.5808478293       -2.0567114316
 H         -5.1959069733        0.6688663688       -2.8340956264
 H         -6.3083525075        0.1060355274       -1.5745922947
 O         -3.1225458483        0.0741472372       -1.8622494607
 C         -1.9138134563       -0.4584129453       -1.4352508637
 O         -0.9926108927       -0.3052836767       -2.2641748866
 O         -3.0131476704       -1.7264557069        1.7699930749
 C         -0.5975470106       -1.7200252751        0.3507692453
 C          0.3464490432       -0.6924585613        0.9277554687
 C          0.7041981688       -0.7223592029        2.2702754307
 C          1.5987966836        0.2011508855        2.7839216004
 C          2.1547501528        1.1712872095        1.9697637242
 C          1.7966603514        1.2127862252        0.6285023210
 C          0.9058370523        0.2830294100        0.1144223341
 H          0.6311790161        0.3231379714       -0.9291789832
 N          2.3725824447        2.1870423427       -0.2149323014
 S          4.0458536313        2.1243724092       -0.3181274475
 O          4.6155432054        2.7516720846        0.8480141561
 O          4.3852551795        2.7233789281       -1.5892990239
 C          4.4183773409        0.3801273433       -0.3154912572
 C          4.0830556884       -0.3555968473       -1.4347026631
 C          4.2894720904       -1.7250392903       -1.4227908538
 C          4.8173031218       -2.3330616046       -0.2940529625
 C          5.1488197182       -1.5802263843        0.8214078416
 C          4.9459492685       -0.2095646330        0.8149376202
 H          5.1886454096        0.4130500260        1.6602044756
 H          5.5592682860       -2.0567084016        1.6968927953
 H          4.9715328139       -3.4006244631       -0.2847921945
 H          4.0323904468       -2.3108254715       -2.2909916966
 H          3.6757699331        0.1501055788       -2.2959993051
 H          1.9713722917        2.1811321407       -1.1424641674
 H          2.8595892074        1.8946341659        2.3469742500
 H          1.8667438566        0.1648112881        3.8286981571
 H          0.2678947525       -1.4710902938        2.9150196254
 H         -0.9334644132       -2.3639587984        1.1744396443
 C          0.1271350890       -2.5805395229       -0.6670116719
 C          1.0834930995       -3.6263647325       -0.1815316683
 C         -0.2259023336       -4.0311269612       -0.7881436085
 H         -0.2269783623       -4.4795411122       -1.7703047921
 H         -0.9960184388       -4.4143616475       -0.1345709918
 H          1.9870320155       -3.7965091089       -0.7453963743
 H          1.2030450877       -3.7364446106        0.8853382854
 H          0.3762441649       -2.0519927039       -1.5776586941
