  62
        -98.94832798
 C         -0.7897248834       -1.3029565762        0.0720862440
 C         -1.6245199774       -0.8938624969        1.1376400270
 C         -2.4435301212        0.2993268532        0.8885108974
 C         -2.3381387609        0.9342737410       -0.2935133720
 C         -3.1915562215        2.0924971581       -0.7203994243
 C         -4.4638946592        1.6103209221       -1.4331082595
 C         -5.2258613343        0.5197382892       -0.6807334342
 H         -6.1167481562        0.2822884717       -1.2661518619
 H         -4.6139200429       -0.3844102898       -0.6453187388
 C         -5.6403561171        0.9043612234        0.7462000635
 H         -5.5963074302        1.9873600856        0.8667482628
 H         -6.6776825136        0.6021894733        0.9049655306
 C         -4.8098049843        0.2399527376        1.8454576828
 H         -4.7788921559       -0.8401164598        1.6806526475
 H         -5.3102012485        0.4101730540        2.8026145299
 C         -3.3683094773        0.7456624971        1.9857666846
 H         -2.9580112015        0.3293151048        2.9109554789
 H         -3.3660733455        1.8343212401        2.0722105202
 H         -4.1819718671        1.2155529160       -2.4116621624
 H         -5.1177868848        2.4703499023       -1.5882006060
 H         -3.4534330739        2.6871336804        0.1525967142
 H         -2.6154328558        2.7061876314       -1.4128475060
 O         -1.4774811085        0.5481403266       -1.2686600929
 C         -0.6834954144       -0.5783299838       -1.1150334030
 O          0.0554150419       -0.8240212170       -2.0857596934
 O         -1.6917396326       -1.5059769625        2.2391905458
 C          0.0425302396       -2.5612078578        0.2275579036
 C          1.5057525406       -2.2698745069        0.0098465309
 C          2.3518319148       -3.1205917555       -0.6908430011
 C          3.6880222619       -2.8001784965       -0.8556882784
 C          4.2055422173       -1.6285142866       -0.3359440734
 C          3.3682327666       -0.7753909788        0.3758250300
 C          2.0349556781       -1.1062261038        0.5534599948
 H          1.3968314550       -0.4417774982        1.1182403608
 N          3.8658007557        0.4174978379        0.9186517750
 S          2.9029202234        1.7327192760        1.2317807192
 O          3.8459596983        2.8135040429        1.4370377589
 O          2.0226632978        1.4638957993        2.3432625721
 C          1.9372515245        2.1069627599       -0.2231951104
 C          2.2757815589        1.6354423928       -1.4743262136
 C          1.5236845750        2.0388446132       -2.5667602107
 C          0.4705961809        2.9217033906       -2.3972759038
 C          0.1514603833        3.3983656644       -1.1354564227
 C          0.8836516275        2.9803637224       -0.0376696773
 H          0.6572266361        3.3100756810        0.9642674599
 H         -0.6624608793        4.0928158114       -0.9998044705
 H         -0.1078748570        3.2344273724       -3.2523822878
 H          1.7612197903        1.6538954612       -3.5450041777
 H          3.0956124976        0.9470792615       -1.5980467566
 H          4.7973316113        0.6793719090        0.6334980256
 H          5.2444343891       -1.3717653546       -0.4752811041
 H          4.3338022168       -3.4677475447       -1.4053460203
 H          1.9643153857       -4.0331449584       -1.1126480992
 H         -0.0913857610       -2.8749647878        1.2743141459
 C         -0.4942353232       -3.6503706870       -0.6800218638
 C         -0.4071991174       -5.0910938246       -0.2761775818
 C         -1.7308884376       -4.3891833749       -0.2676216970
 H         -2.4578303365       -4.6436113742       -1.0243840167
 H         -2.1669754925       -4.1279946030        0.6858242349
 H         -0.2277509036       -5.8316658659       -1.0410124299
 H          0.0501529479       -5.3176177651        0.6751357891
 H         -0.3862648278       -3.4033870622       -1.7304282207
