  62
        -98.94729720
 C          1.7513064245        1.1731511864       -0.4461383633
 C          1.2164046318        1.8864645569        0.6569222760
 C          0.1091223448        2.8094339820        0.3487419510
 C         -0.3448633627        2.9115739819       -0.9122927921
 C         -1.4992674198        3.7639967565       -1.3506822628
 C         -2.8239534789        2.9910920936       -1.2984175204
 C         -3.0843276218        2.2856466127        0.0328742439
 H         -4.0760059909        1.8308166441       -0.0273422188
 H         -2.3726280037        1.4676874289        0.1642742741
 C         -3.0146356350        3.1980919226        1.2648142791
 H         -3.8560206672        2.9630081687        1.9201264021
 H         -3.1160381094        4.2425996423        0.9654534184
 C         -1.7431760166        3.0235794920        2.0981675353
 H         -1.8968882551        3.5156049497        3.0630076140
 H         -1.5838835511        1.9599645678        2.2946974965
 C         -0.4604263896        3.6050100069        1.4890827948
 H         -0.6339395704        4.6402842822        1.1849288073
 H          0.3063491003        3.6000497293        2.2696702275
 H         -2.8193992057        2.2365431949       -2.0883846899
 H         -3.6362181462        3.6917716269       -1.5012093168
 H         -1.5556306244        4.6441495137       -0.7130117490
 H         -1.3170832686        4.0824610264       -2.3787159120
 O          0.1885244260        2.2102064147       -1.9448488227
 C          1.2368113910        1.3295265246       -1.7368199880
 O          1.6234256585        0.7491332243       -2.7710756171
 H          0.8304041479       -0.5741134907        1.3312032325
 C          1.2413391513       -1.4149736457        0.7947087883
 C          2.3019590593       -1.2350148105       -0.0804525820
 C          2.8261255213       -2.3474013725       -0.7292916830
 C          2.2945279751       -3.6054241339       -0.5120809673
 C          1.2077979130       -3.7733416483        0.3274956360
 C          0.6739132484       -2.6679582424        0.9785225901
 N         -0.4568278750       -2.7917877129        1.8080217162
 S         -1.7559873447       -1.7765071383        1.5045016325
 O         -1.4487810343       -0.4332258550        1.9150013261
 O         -2.8732545355       -2.4096370033        2.1711933955
 C         -1.9776507218       -1.8605088114       -0.2623160173
 C         -1.3073969194       -0.9657262702       -1.0707647748
 C         -1.4126509787       -1.0897564275       -2.4467869265
 C         -2.1900985716       -2.1016402504       -2.9884529960
 C         -2.8661236515       -2.9888693426       -2.1637511920
 C         -2.7545103413       -2.8746688150       -0.7876782706
 H         -3.2650004531       -3.5402924582       -0.1105333363
 H         -3.4731598099       -3.7711667633       -2.5901508925
 H         -2.2672847255       -2.1961935083       -4.0601086658
 H         -0.8701240345       -0.4022566102       -3.0779151500
 H         -0.7088203245       -0.1880810653       -0.6224693273
 H         -0.7825725463       -3.7423809751        1.9154331110
 H          0.7726937605       -4.7496424009        0.4775904336
 H          2.7144297270       -4.4609050987       -1.0182646950
 H          3.6467545812       -2.2187380260       -1.4186540044
 C          2.8658542245        0.1448723461       -0.3359674137
 H          3.3505828668        0.1219629267       -1.3225220116
 C          3.9203900066        0.4757988378        0.7018197967
 C          5.3174207760       -0.0323119508        0.5167517430
 C          5.0225629639        1.4278602845        0.3522425869
 H          5.3635847277        2.1178736210        1.1090843795
 H          5.0273749686        1.8398613424       -0.6466711983
 H          5.8663282603       -0.3509025048        1.3894734734
 H          5.5332219977       -0.6053898271       -0.3719418440
 H          3.5289143272        0.5192441607        1.7096438767
 O          1.6254792053        1.7827332301        1.8430083962
