  62
        -98.94626211
 C         -2.3862899599       -0.5394746984       -0.0119041441
 C         -1.3906911388       -0.7329977487        0.9731732556
 C         -0.6929538257       -2.0242051023        0.9462398286
 C         -1.0262038629       -2.9284321504        0.0076745032
 C         -0.3135539118       -4.2277724256       -0.2364505252
 C          0.9907450177       -3.9571789708       -1.0154591458
 C          2.2689239002       -4.2840761232       -0.2422194954
 H          2.4040170635       -5.3679941270       -0.2191075494
 H          3.1021085111       -3.8568606403       -0.8049556216
 C          2.3258901686       -3.7703310175        1.1997027886
 H          1.7636120721       -4.4426652703        1.8498868078
 H          3.3691565435       -3.8275469704        1.5172211299
 C          1.8218509310       -2.3375396904        1.4161867644
 H          1.8834369623       -1.7653735847        0.4893144976
 H          2.4794292815       -1.8471601671        2.1375010692
 C          0.3863293032       -2.2452182454        1.9689847655
 H          0.1589944123       -3.1388194905        2.5567675458
 H          0.3232998642       -1.3824960311        2.6382530690
 H          0.9910671898       -4.5398224707       -1.9386306150
 H          1.0048096777       -2.9049041943       -1.3111365437
 H         -0.1010283123       -4.7191000905        0.7105084463
 H         -0.9797657999       -4.8634259212       -0.8204534639
 O         -2.0142007176       -2.7216873735       -0.9017429023
 C         -2.6948002247       -1.5161559192       -0.9554864135
 O         -3.5405171364       -1.4387085326       -1.8717017751
 H         -0.8742804827        0.6709463739       -1.6285756534
 C         -0.9263556341        1.6131374765       -1.1024350951
 C         -2.0105902228        1.8818647203       -0.2763735062
 C         -2.0601030343        3.1105649988        0.3697678433
 C         -1.0315671657        4.0249172890        0.2165316523
 C          0.0748387266        3.7262979781       -0.5577476634
 C          0.1270648487        2.5044337586       -1.2189019151
 N          1.2361885804        2.1390986503       -2.0094458661
 S          2.0987909801        0.7687523100       -1.5760870128
 O          3.1729444861        0.6868412618       -2.5429435430
 O          1.2209418031       -0.3706569845       -1.5057516477
 C          2.7872554090        1.1494494240        0.0257251131
 C          1.9657384439        1.1654638507        1.1349834260
 C          2.5120655928        1.5130542473        2.3613162771
 C          3.8561635459        1.8367636842        2.4588300662
 C          4.6666585296        1.8170572924        1.3335649948
 C          4.1280219048        1.4750985035        0.1041134061
 H          4.7179924444        1.4434534990       -0.7976511832
 H          5.7126289100        2.0670311920        1.4098499351
 H          4.2731269243        2.1043607756        3.4169370027
 H          1.8732931132        1.5249807229        3.2300150251
 H          0.9235199069        0.9015797725        1.0471459424
 H          1.8863699351        2.8958737921       -2.1723319667
 H          0.8908310573        4.4270487348       -0.6511901945
 H         -1.0826396751        4.9749885980        0.7260381173
 H         -2.9002564689        3.3486588085        1.0014878092
 C         -3.0676056840        0.8128086320       -0.1252259189
 H         -3.6658102456        0.7797385037       -1.0478866528
 C         -3.9925412846        1.0449447270        1.0516997572
 C         -5.2299481623        1.8749106120        0.8914705779
 C         -5.3393907478        0.3889961982        1.0502078827
 H         -5.7219825360       -0.0065993175        1.9789892450
 H         -5.5983217082       -0.2035841041        0.1844812970
 H         -5.4294190123        2.2941767374       -0.0831962395
 H         -5.5425912689        2.4994310760        1.7147287117
 H         -3.4596701965        1.0919583707        1.9943371805
 O         -1.0869852798        0.1438260071        1.8260973499
