  62
        -98.94686808
 C         -1.1556864757       -1.1522523718       -0.1746049865
 C         -2.0198002019       -0.8354340697        0.9076981332
 C         -2.8459613364        0.3678340289        0.7569006368
 C         -2.7292033398        1.1048854830       -0.3622692186
 C         -3.5563253330        2.3155951737       -0.6828663472
 C         -4.8218556347        1.9302142464       -1.4619999747
 C         -5.6091913180        0.7811047581       -0.8321666552
 H         -6.4961523960        0.6183591548       -1.4483653266
 H         -5.0113333046       -0.1317175819       -0.8837986563
 C         -6.0352932191        1.0252811164        0.6223756175
 H         -5.9804613021        2.0901791198        0.8514102207
 H         -7.0786282917        0.7236451893        0.7368423475
 C         -5.2290198775        0.2409428082        1.6594044406
 H         -5.7461622742        0.3167074377        2.6196759342
 H         -5.2076592705       -0.8162216279        1.3829059876
 C         -3.7854729795        0.7117429915        1.8781157700
 H         -3.3994266170        0.1963143327        2.7621823724
 H         -3.7767356545        1.7857133504        2.0748504940
 H         -5.4613337776        2.8114116134       -1.5400093682
 H         -4.5303218919        1.6318580661       -2.4716688069
 H         -2.9584201364        2.9920322024       -1.2954129757
 H         -3.8304201876        2.8206626946        0.2414947603
 O         -1.8659072792        0.7954363096       -1.3588749169
 C         -1.0614901627       -0.3313095830       -1.2985625064
 O         -0.3304764205       -0.4652437405       -2.3014323078
 O         -2.1020452965       -1.5379981621        1.9496495282
 C         -0.3357238266       -2.4254213081       -0.0337311031
 C          1.0759383138       -2.1099513647        0.3961945139
 C          1.5540627009       -2.5042410011        1.6401905498
 C          2.8390299796       -2.1781128241        2.0402098830
 C          3.6692128081       -1.4418582173        1.2132322649
 C          3.1947295240       -1.0375590352       -0.0271320643
 C          1.9157512143       -1.3816667879       -0.4344820698
 H          1.5531700369       -1.0507360716       -1.3961743601
 N          4.0093752620       -0.2252227780       -0.8541541730
 S          4.1854961371        1.3380029978       -0.2740605081
 O          4.7176958870        2.1135852198       -1.3708866391
 O          4.9868383907        1.2931103978        0.9225013413
 C          2.5329175858        1.8818986337        0.1259259632
 C          1.7995326000        2.5492208521       -0.8338044255
 C          0.5038332361        2.9387653230       -0.5370836068
 C         -0.0393471002        2.6391169391        0.7022318401
 C          0.7029934886        1.9506897747        1.6487348417
 C          2.0040215035        1.5709915862        1.3629648320
 H          2.6151654476        1.0474911911        2.0798335043
 H          0.2693837916        1.7050750135        2.6051001278
 H         -1.0496069430        2.9387623323        0.9322816937
 H         -0.0800904836        3.4647291515       -1.2753566723
 H          2.2571625810        2.7636416725       -1.7865168875
 H          3.6588526873       -0.1756368629       -1.8018590224
 H          4.6615849870       -1.1510350863        1.5173587116
 H          3.1957721257       -2.4940092298        3.0087348948
 H          0.9040212928       -3.0557965934        2.3035457366
 H         -0.8150323418       -2.9851244610        0.7804637718
 C         -0.3481829294       -3.2884396260       -1.2804304417
 C         -0.0200038753       -4.7451970060       -1.1582884307
 C         -1.4254582515       -4.3151366379       -1.4516168205
 H         -1.8234600385       -4.4839476635       -2.4409936325
 H         -2.1606985948       -4.4051252040       -0.6651832083
 H          0.5505360248       -5.2121918394       -1.9463038030
 H          0.1971799702       -5.1281235114       -0.1726859032
 H         -0.0131535979       -2.7698829746       -2.1691874839
