  62
        -98.94785191
 C          0.7650140957        1.2434965007        0.5887708536
 C          1.1657534019        0.6873919832       -0.6500366767
 C          2.1134642031       -0.4304915646       -0.5650712914
 C          2.4902256493       -0.8980862149        0.6383224194
 C          3.4830448239       -2.0004035016        0.8899373290
 C          4.9444414937       -1.5294225344        0.8646047785
 C          5.5000237484       -1.2014702341       -0.5221019188
 H          6.5828170367       -1.1073254177       -0.4177720264
 H          5.3098485734       -2.0371883784       -1.1959192145
 C          4.9511088470        0.0935124001       -1.1373448315
 H          4.4951264529        0.7046483051       -0.3548195565
 H          5.7756918764        0.6750321769       -1.5560647882
 C          3.9311981231       -0.1179844684       -2.2565334809
 H          3.5820434407        0.8622659425       -2.5903483923
 H          4.4138834556       -0.6100717832       -3.1036885145
 C          2.7051372633       -0.9429404904       -1.8428517117
 H          2.9760877039       -1.9926688568       -1.7440078008
 H          1.9452696008       -0.8445970726       -2.6212884686
 H          5.0419129892       -0.6550591760        1.5124341727
 H          5.5516762406       -2.3293482500        1.2947043046
 H          3.2689765674       -2.3935090867        1.8857922966
 H          3.3468289936       -2.7972495764        0.1599717100
 O          1.9935613459       -0.4044472855        1.8052711999
 C          1.1519627596        0.6959985207        1.8104998761
 O          0.8184501279        1.0836672580        2.9504643849
 O          0.7706972917        1.1125659286       -1.7658250832
 C         -0.1041572394        2.4859362120        0.6105092707
 C         -1.3744858258        2.2808045312       -0.1770714139
 C         -1.9344539795        3.2691885858       -0.9769516504
 C         -3.1181061861        3.0332850839       -1.6540073405
 C         -3.7672839665        1.8179988609       -1.5454368484
 C         -3.2160231484        0.8228729725       -0.7445636556
 C         -2.0322025079        1.0626664946       -0.0664203705
 H         -1.6132641318        0.2934925553        0.5665865467
 N         -3.8305323311       -0.4285499138       -0.6469429104
 S         -3.4715646794       -1.5393471836        0.5312748311
 O         -4.4886310548       -2.5579740923        0.3711489241
 O         -3.3921376612       -0.9400502520        1.8435864416
 C         -1.9019064289       -2.2311060590        0.0576350721
 C         -1.6435835226       -2.4589541262       -1.2789330971
 C         -0.4607133470       -3.0861798038       -1.6339909986
 C          0.4317517058       -3.4848982870       -0.6519196806
 C          0.1628233317       -3.2414687756        0.6854242865
 C         -1.0139170833       -2.6056257150        1.0456632774
 H         -1.2561121831       -2.3871693924        2.0745483425
 H          0.8594835333       -3.5448377197        1.4502273198
 H          1.3406967495       -3.9937989832       -0.9302411445
 H         -0.2414625021       -3.2672396892       -2.6737931749
 H         -2.3625153195       -2.1445572950       -2.0170343979
 H         -4.7459518319       -0.5266681031       -1.0561330153
 H         -4.6889071495        1.6340867174       -2.0755294233
 H         -3.5420636842        3.8083362885       -2.2742997412
 H         -1.4439916020        4.2239992176       -1.0718111241
 H         -0.3830644910        2.6463041180        1.6633277598
 C          0.7079863135        3.6750587509        0.1339516781
 C          0.4665814482        5.0410426514        0.7001757084
 C          1.7075155106        4.2859427946        1.0679288363
 H          2.6539186193        4.6180298048        0.6680539975
 H          1.7769736580        3.8642620221        2.0606213328
 H          0.5647609808        5.8957853990        0.0478585070
 H         -0.3028246225        5.1431442628        1.4507162628
 H          0.9852655213        3.5939086300       -0.9110956607
