  62
        -98.94084576
 C         -1.5900930582       -0.6426937002        0.3873997899
 C         -2.6991095200       -0.8979174084       -0.4572954019
 C         -3.6350651435        0.2245881928       -0.6296815314
 C         -3.3770755975        1.4154632431       -0.0621565861
 C         -4.2195087939        2.6566119149       -0.1795305286
 C         -5.3887457551        2.7136355729        0.8131723800
 C         -6.5467322184        1.7616082912        0.5110706418
 H         -7.3807092722        2.0588532011        1.1500442953
 H         -6.8657551134        1.8954192211       -0.5230221963
 C         -6.2327889814        0.2809646183        0.7674223485
 H         -5.3462526955        0.2010687587        1.4010242533
 H         -7.0590929793       -0.1768852059        1.3160522539
 C         -6.0137348028       -0.5487189474       -0.4978479962
 H         -5.7622932792       -1.5696324428       -0.1989483430
 H         -6.9399255472       -0.5864602629       -1.0755836959
 C         -4.8915777229       -0.0302470831       -1.4065519964
 H         -5.2127201754        0.8749785707       -1.9211083390
 H         -4.6714889436       -0.7987715436       -2.1514268911
 H         -5.0055707085        2.5139504093        1.8166668322
 H         -5.7752357239        3.7354263683        0.8029658322
 H         -4.6004899225        2.7468315577       -1.1971511465
 H         -3.5576673518        3.5018152658        0.0209934141
 O         -2.2672881899        1.6379861525        0.6925046669
 C         -1.3718730396        0.6152225904        0.9549859879
 O         -0.4249074378        0.9454471267        1.6976969846
 O         -2.9143653246       -1.9867747090       -1.0460354384
 C         -0.5378468774       -1.6875321143        0.7221640697
 C          0.5876055596       -1.6212747190       -0.2775282611
 C          0.3417981993       -1.7022925719       -1.6454471380
 C          1.3855578939       -1.6247750485       -2.5483578240
 C          2.6861781019       -1.4441062169       -2.1091516403
 C          2.9406987318       -1.3534896752       -0.7464209369
 C          1.8926752354       -1.4542609840        0.1594177303
 H          2.1062570050       -1.3791839746        1.2149080812
 N          4.2507233348       -1.1724062896       -0.2686340910
 S          4.5545298110        0.0420444751        0.8458841874
 O          5.9957500308        0.1656681134        0.8567878836
 O          3.9358813046       -0.2808499689        2.1047596858
 C          3.8322888564        1.5016933747        0.1193488005
 C          2.5110926093        1.8196061412        0.3595196987
 C          1.9643027440        2.9197543257       -0.2837668461
 C          2.7379964032        3.6784550375       -1.1473466394
 C          4.0658239674        3.3471358023       -1.3742501517
 C          4.6174764365        2.2463279158       -0.7409588216
 H          5.6467136358        1.9577653670       -0.8816273298
 H          4.6682585793        3.9413084638       -2.0423551664
 H          2.3039810237        4.5329269148       -1.6424527859
 H          0.9303648604        3.1657558081       -0.0968623423
 H          1.9149518285        1.2288360957        1.0373125432
 H          4.9522301200       -1.1550958772       -0.9957579253
 H          3.4991104966       -1.3749831288       -2.8158721612
 H          1.1844594090       -1.6959786347       -3.6065258920
 H         -0.6739249369       -1.8319517791       -1.9876456132
 H         -0.1251232663       -1.3823305702        1.6978544334
 C         -1.1084196963       -3.0879761051        0.8970418145
 C         -0.8132881323       -4.2283371678       -0.0255248010
 C         -0.2057453580       -4.2005922167        1.3425826242
 H         -0.5648096265       -4.8936906628        2.0883445651
 H          0.8492249966       -3.9797562837        1.4173667081
 H         -1.6127326053       -4.9250519731       -0.2261913443
 H         -0.1686913041       -4.0512760463       -0.8716258982
 H         -2.1029411593       -3.0690214336        1.3306121105
