  62
        -98.93502503
 C         -1.8229852819       -0.8750579088        0.5530065980
 C         -2.3180495884       -0.1257107228       -0.5405483285
 C         -3.4742777528        0.7521096151       -0.2659781267
 C         -3.9646240872        0.8388909566        0.9835732466
 C         -5.0970879375        1.6641499341        1.5583681880
 C         -6.1136574554        2.3415971135        0.6430620253
 C         -7.0224797994        1.3825180200       -0.1249989365
 H         -7.6941978611        0.8955680800        0.5865300816
 H         -7.6354829121        1.9703503711       -0.8117041527
 C         -6.3096746248        0.2848444713       -0.9109820919
 H         -5.7770427559       -0.3731923968       -0.2213335516
 H         -7.0732789324       -0.3204846496       -1.4068670015
 C         -5.3368050781        0.7740411896       -1.9822398141
 H         -5.0292068243       -0.0957310931       -2.5690327829
 H         -5.8478703394        1.4656430491       -2.6547317503
 C         -4.0596598235        1.4534888383       -1.4575699845
 H         -3.3013200093        1.4038978443       -2.2447557898
 H         -4.2314603288        2.5046824695       -1.2382600364
 H         -5.6121966132        3.0208096735       -0.0401956303
 H         -6.7505331219        2.9545232831        1.2868203308
 H         -5.6259999271        1.0006853930        2.2502309721
 H         -4.6204191139        2.4340842598        2.1754437000
 O         -3.4028055250        0.1522858820        2.0225952506
 C         -2.3361975667       -0.7093574959        1.8399640859
 O         -1.9323771880       -1.2513535158        2.8886596753
 H          0.5893271941        0.4064229967        1.0499140636
 C          0.9909429284        0.0013220510        0.1284369821
 C          0.4544912127       -1.1763029488       -0.3797544130
 C          0.9781960881       -1.6871027458       -1.5591823360
 C          1.9936793365       -1.0187150441       -2.2216312844
 C          2.5123235296        0.1614101528       -1.7230571905
 C          2.0026278753        0.6754150394       -0.5368833977
 N          2.5293049506        1.8691188578       -0.0149683081
 S          4.1910026433        2.0604961003       -0.0078300366
 O          4.4631366181        2.9583274257        1.0931014045
 O          4.6359508607        2.5052865392       -1.3050294905
 C          4.8503992530        0.4375113058        0.3317486699
 C          5.6655069694       -0.1841301166       -0.5919101106
 C          6.1406717405       -1.4566680273       -0.3174892850
 C          5.7911667547       -2.0833190377        0.8683350486
 C          4.9740487236       -1.4440088732        1.7884026320
 C          4.4976114596       -0.1713511336        1.5199241354
 H          3.8647486179        0.3541616464        2.2173293621
 H          4.7031049466       -1.9324258085        2.7107695216
 H          6.1575025416       -3.0755030591        1.0794661162
 H          6.7776650516       -1.9553236853       -1.0300129854
 H          5.9103603931        0.3385657134       -1.5020888597
 H          2.1211789928        2.1512739722        0.8634669781
 H          3.2884068435        0.7027380095       -2.2393799536
 H          2.3820449127       -1.4194092003       -3.1454044397
 H          0.5721630315       -2.5930498950       -1.9773153852
 C         -0.6542930719       -1.8341351120        0.4048957168
 H         -0.2872299358       -1.9889629741        1.4332006707
 C         -1.0392955216       -3.2073997071       -0.1250602399
 C         -2.4078438148       -3.7695113154        0.1160216569
 C         -1.9865671169       -3.3917708675       -1.2707120779
 H         -1.7873133485       -4.1843147703       -1.9772729855
 H         -2.4101536583       -2.5064559083       -1.7168902672
 H         -2.4963052197       -4.8169454110        0.3626724896
 H         -3.1251754867       -3.1408052931        0.6239212786
 H         -0.2157035084       -3.9112159014       -0.0560428208
 O         -1.8294229361       -0.1707464659       -1.6979629229
