  62
        -98.94848346
 C          0.8311228141        1.2232257219        0.5669398399
 C          1.2054019708        0.5391761458       -0.6143371737
 C          2.1468286099       -0.5724371293       -0.4278851026
 C          2.4766716651       -0.9656689370        0.8151291649
 C          3.4180279084       -2.0850828705        1.1688051123
 C          4.8934958377       -1.6617813490        1.1941718986
 C          5.5171678543       -1.4122127670       -0.1797807711
 H          6.5962020826       -1.3361472061       -0.0316560552
 H          5.3369173543       -2.2754103997       -0.8210021370
 C          5.0239137901       -0.1370869893       -0.8781882555
 H          4.5455759164        0.5177039842       -0.1459603058
 H          5.8791028482        0.4089614598       -1.2829202209
 C          4.0534710143       -0.3800841048       -2.0346085699
 H          4.5654402629       -0.9219582599       -2.8326855116
 H          3.7459861654        0.5911044942       -2.4301605661
 C          2.7877343627       -1.1586760889       -1.6488360014
 H          2.0704916722       -1.0770769056       -2.4681304848
 H          3.0293720812       -2.2084734014       -1.4900178166
 H          4.9890708002       -0.7630999133        1.8081455654
 H          5.4545776194       -2.4600802010        1.6856577130
 H          3.1386325734       -2.4257009866        2.1682641084
 H          3.2939706368       -2.9114878273        0.4690163820
 O          1.9666417142       -0.3757214351        1.9310773672
 C          1.1915218218        0.7694043996        1.8347405745
 O          0.8844671724        1.2779390668        2.9334877338
 H         -1.7015346803        0.5706479028        1.0942536949
 C         -2.0770239857        1.1758569161        0.2811046289
 C         -1.3137543541        2.2373090177       -0.1898674949
 C         -1.8233201860        3.0198371100       -1.2179620801
 C         -3.0620211486        2.7348869670       -1.7655336098
 C         -3.8157957920        1.6736145394       -1.3006030367
 C         -3.3187423460        0.8914752231       -0.2632570129
 N         -4.0716330820       -0.1748322653        0.2483825387
 S         -3.3383649692       -1.5092754102        0.9145011735
 O         -4.3710555979       -2.5253802937        0.8907141596
 O         -2.8042777757       -1.2009254155        2.2180765606
 C         -2.0284595634       -2.0061944942       -0.1897454959
 C         -2.2104471225       -1.9250005745       -1.5556742547
 C         -1.2247766628       -2.4199947043       -2.3935327885
 C         -0.0891780090       -3.0039269352       -1.8563224208
 C          0.0806835222       -3.0749557995       -0.4831540389
 C         -0.8936296966       -2.5660310418        0.3592831570
 H         -0.7935722507       -2.5890252432        1.4335951759
 H          0.9627100519       -3.5282067454       -0.0610609427
 H          0.6681032423       -3.4053721776       -2.5105910377
 H         -1.3483163671       -2.3530152092       -3.4623005941
 H         -3.1074446871       -1.4801536543       -1.9541216508
 H         -4.9109263003       -0.4060207896       -0.2616083436
 H         -4.7823335581        1.4526494374       -1.7266839702
 H         -3.4447676092        3.3472187716       -2.5676030047
 H         -1.2508383302        3.8516811140       -1.5930371001
 C          0.0145443425        2.4989720338        0.4749499795
 H         -0.1868593493        2.8047969841        1.5126566098
 C          0.8319521914        3.5797411002       -0.2034981610
 C          0.6079055594        5.0221812765        0.1336269120
 C          1.8501936393        4.3271682762        0.6019222628
 H          2.7916317370        4.5806433092        0.1379428265
 H          1.9344825307        4.0755925675        1.6496565744
 H          0.7000636310        5.7571807950       -0.6516701123
 H         -0.1495981208        5.2521534499        0.8676583942
 H          1.0930589032        3.3250823240       -1.2241898810
 O          0.7979809190        0.8513485257       -1.7619034525
