  62
        -98.94059187
 C         -1.6156806489       -1.0627991398        0.8680487203
 C         -2.8481826890       -1.2486177400        0.1938744005
 C         -3.8420770493       -0.1761633703        0.3753005410
 C         -3.5349863994        0.9005632296        1.1195401012
 C         -4.4285312097        2.0889921093        1.3234033017
 C         -4.1773545902        3.1649953297        0.2574435119
 C         -4.1625798103        2.6266122200       -1.1732327882
 H         -4.0062436107        3.4777620803       -1.8393409880
 H         -3.3052464302        1.9606706203       -1.2954624686
 C         -5.4421450902        1.8848431298       -1.5842040982
 H         -5.7371360905        2.2200601300       -2.5808134581
 H         -6.2545622001        2.1414915594       -0.9032443080
 C         -5.2993123198        0.3632733998       -1.6506751986
 H         -6.1834187798       -0.0397650803       -2.1519219286
 H         -4.4307767598        0.1028527702       -2.2605780689
 C         -5.1726032593       -0.3545004805       -0.3010525488
 H         -5.9845301493       -0.0430528909        0.3593328414
 H         -5.2728356891       -1.4279543005       -0.4867183891
 H         -3.2105128903        3.6320504299        0.4577790318
 H         -4.9498010804        3.9303954194        0.3522000622
 H         -5.4670688496        1.7654093890        1.2898678318
 H         -4.2212077697        2.5100690091        2.3086798717
 O         -2.3356480194        1.0514494598        1.7385879310
 C         -1.3560793591        0.0802289701        1.6286158906
 O         -0.3060150891        0.3417730002        2.2498603205
 H          2.1993754612       -1.6013098187        0.8812548995
 C          1.7959826610       -1.4952733186       -0.1143456504
 C          0.4444735410       -1.7017555189       -0.3437587302
 C         -0.0494047092       -1.5476210187       -1.6363253801
 C          0.7982996905       -1.2000576182       -2.6712630101
 C          2.1451260805       -0.9809881779       -2.4360452403
 C          2.6465779307       -1.1254198981       -1.1483486605
 N          4.0105687507       -0.9171257677       -0.8808485707
 S          4.4670752507        0.0601168520        0.4014080795
 O          5.8777732806        0.2958171525        0.1853566593
 O          4.1115673111       -0.5662523084        1.6476452094
 C          3.5616258902        1.5759035819        0.1513225101
 C          4.1429655198        2.5482037822       -0.6411727998
 C          3.4380751994        3.7093771221       -0.9093321893
 C          2.1619203595        3.8754719616       -0.3913890391
 C          1.5934791199        2.8900215412        0.3996617308
 C          2.2949657503        1.7265357214        0.6777642604
 H          1.8588865606        0.9585390011        1.2973539502
 H          0.6027679099        3.0056410209        0.8112290610
 H          1.6086197992        4.7772869915       -0.6016344287
 H          3.8815965891        4.4787829424       -1.5206144092
 H          5.1400855298        2.3812740326       -1.0156941100
 H          4.5584810205       -0.6905009174       -1.6989346507
 H          2.8045280902       -0.7019705475       -3.2437791904
 H          0.4061783503       -1.0895479080       -3.6709664600
 H         -1.1016017592       -1.7096554089       -1.8164967599
 C         -0.4685377387       -2.0584654594        0.8009419299
 H          0.1018965715       -1.9078282395        1.7321293698
 C         -0.9216765683       -3.5115697496        0.7839662996
 C         -0.7222140982       -4.4307014392       -0.3799360907
 C          0.1052421721       -4.6032133693        0.8558810691
 H         -0.0827289676       -5.4514891195        1.4965969489
 H          1.1434975720       -4.3079070190        0.8085620090
 H         -0.2402515085       -4.0440715988       -1.2638032007
 H         -1.5029026380       -5.1463344494       -0.5879121808
 H         -1.8277643781       -3.6610794900        1.3614752697
 O         -3.1253402188       -2.2428725698       -0.5232407897
