  62
        -98.94184773
 C         -2.7745633549       -0.3589527532       -0.2784963247
 C         -2.0380761166        0.4863594803       -1.1439732675
 C         -2.1001058327        1.9251000642       -0.8474724067
 C         -2.8563607648        2.3633376208        0.1737193137
 C         -2.9745935134        3.7948254048        0.6078318407
 C         -1.9475923607        4.1388438615        1.6951774099
 C         -0.5177123762        3.7107290111        1.3626417720
 H          0.1213442672        4.0530241982        2.1800899011
 H         -0.4535691582        2.6193048931        1.3520948414
 C          0.0205246530        4.2559026299        0.0327363672
 H         -0.5750643719        5.1119832798       -0.2879336997
 H          1.0415303860        4.6088229203        0.1919742955
 C          0.0769361343        3.2199306715       -1.0917373522
 H          0.5567754281        2.3119960205       -0.7148230887
 H          0.7014205370        3.6216730883       -1.8947340593
 C         -1.2753273800        2.8386330631       -1.7093743176
 H         -1.8334044738        3.7423694711       -1.9627478874
 H         -1.0791620855        2.2850661630       -2.6321821267
 H         -1.9742429325        5.2172291882        1.8636023281
 H         -2.2441906843        3.6424499194        2.6221422652
 H         -2.8356969918        4.4425976161       -0.2555178824
 H         -3.9779874155        3.9486120806        1.0089684875
 O         -3.5851755969        1.5291590472        0.9583614245
 C         -3.5337779719        0.1592849263        0.7759417911
 O         -4.2140960308       -0.4888587950        1.5970319797
 O         -1.3544103206        0.0878619318       -2.1261540758
 C         -2.7461102221       -1.8802051307       -0.3657047089
 C         -1.4777690306       -2.3668294166        0.2939716901
 C         -1.5079204883       -3.0836780254        1.4842370946
 C         -0.3329147839       -3.4268525919        2.1317737284
 C          0.8944364256       -3.0451675977        1.6183722666
 C          0.9308959146       -2.3330045034        0.4281402576
 C         -0.2430739921       -2.0213682144       -0.2364998029
 H         -0.2008106409       -1.4504976052       -1.1521547578
 N          2.1766855137       -1.8638236660       -0.0723609619
 S          2.6704805805       -0.5023081924        0.8138413681
 O          3.0081249071       -0.9424806017        2.1442667434
 O          1.6749319869        0.5437748868        0.7251340116
 C          4.1486695464       -0.0330956896       -0.0641375767
 C          5.3023419381       -0.7617580259        0.1532074965
 C          6.4467560881       -0.4284459869       -0.5530799944
 C          6.4177653543        0.6206203477       -1.4601975474
 C          5.2519670161        1.3421619486       -1.6672876526
 C          4.1028965539        1.0127694585       -0.9651517031
 H          3.1754400238        1.5491270858       -1.0912686039
 H          5.2316638954        2.1579907163       -2.3718849194
 H          7.3097012869        0.8789099914       -2.0088377823
 H          7.3556306838       -0.9860846730       -0.3947270602
 H          5.2776795025       -1.5627773431        0.8730232373
 H          2.0668167410       -1.5617969260       -1.0343441399
 H          1.8140888906       -3.2621229959        2.1365497848
 H         -0.3744859391       -3.9800126381        3.0580175299
 H         -2.4627452189       -3.3448850086        1.9177257301
 H         -3.5956983771       -2.2306215228        0.2352494466
 C         -2.9004101605       -2.4159723281       -1.7744109731
 C         -3.3647499408       -3.8276281556       -1.9639837768
 C         -4.2742317819       -2.6867198742       -2.3060764382
 H         -4.4737268919       -2.4763173262       -3.3459616938
 H         -5.1108516414       -2.4865404538       -1.6523024281
 H         -2.9388905206       -4.4051563682       -2.7698956601
 H         -3.5867581667       -4.4038944423       -1.0785169285
 H         -2.1687295720       -2.0268325019       -2.4692677850
