  62
        -98.94318040
 C         -1.2525117097       -1.0668756615       -0.0358649577
 C         -1.7754489739       -0.0335014561        0.7787426661
 C         -2.6875685910        0.9089269181        0.1173157866
 C         -2.9637255861        0.7486003673       -1.1897981245
 C         -3.9212755173        1.5988043288       -1.9725794186
 C         -5.3395897772        1.0123646233       -1.9372492257
 C         -5.8247830475        0.6524923453       -0.5328726489
 H         -6.8462180955        0.2778134796       -0.6284143836
 H         -5.2168975418       -0.1682996053       -0.1454426959
 C         -5.7984874463        1.8178743092        0.4660785089
 H         -5.7405767738        2.7651071198       -0.0714719951
 H         -6.7363488426        1.8203656583        1.0255075011
 C         -4.6669752521        1.7467864530        1.4930455870
 H         -4.8679593919        2.4878612363        2.2712198824
 H         -4.6676883057        0.7633611067        1.9695596367
 C         -3.2575729720        2.0201954132        0.9531350185
 H         -3.2525433992        2.9613045859        0.3993846399
 H         -2.5877933928        2.1200328421        1.8120850725
 H         -5.3546704699        0.1063007710       -2.5475873634
 H         -6.0230365305        1.7351966199       -2.3866955531
 H         -3.9242247496        2.6070999299       -1.5627332447
 H         -3.5802262068        1.6387185252       -3.0086305399
 O         -2.4299678492       -0.2463689802       -1.9445697486
 C         -1.5615999189       -1.1796454899       -1.3913813230
 O         -1.1395156027       -2.0280797925       -2.1994188582
 H          0.8214189950        0.0050667397       -0.7584087992
 C          1.5113262279       -0.8221158751       -0.6443257679
 C          1.0895125136       -1.9783975026       -0.0044439936
 C          2.0033928719       -3.0185127466        0.1339983139
 C          3.2942634777       -2.8983533248       -0.3500638740
 C          3.7072922598       -1.7410955828       -0.9873192438
 C          2.8001635625       -0.7047934368       -1.1425106679
 N          3.2247145601        0.5005678916       -1.7613658180
 S          4.0325965944        1.5162325935       -0.6963477924
 O          4.1807636190        2.7808196839       -1.3804679278
 O          5.2472744846        0.8626880477       -0.2828641698
 C          2.9155594518        1.6793034250        0.6835357616
 C          2.9703401819        0.7489199890        1.7019151213
 C          2.0203067657        0.8035090713        2.7086923082
 C          1.0323778091        1.7752516999        2.6776322478
 C          0.9919494658        2.7023889065        1.6477894628
 C          1.9367639693        2.6518276274        0.6358342116
 H          1.9367159418        3.3526374258       -0.1845136788
 H          0.2181287195        3.4532599727        1.6239107256
 H          0.2798388609        1.7976926699        3.4491526136
 H          2.0422933175        0.0795373409        3.5071358384
 H          3.7502415293        0.0046597002        1.6873668950
 H          2.4570408949        1.0164508617       -2.1699742888
 H          4.7130809113       -1.6193601296       -1.3543207502
 H          3.9892660659       -3.7148724997       -0.2279017143
 H          1.7004292103       -3.9267595772        0.6295322008
 C         -0.2967182777       -2.0603580902        0.5895388014
 H         -0.2185379110       -1.7567574171        1.6454060208
 C         -0.8672011262       -3.4652074562        0.5305091334
 C         -0.6893575629       -4.4147514489        1.6764672705
 C         -2.0323996876       -3.8074837708        1.4090040874
 H         -2.8163875100       -4.4319579435        1.0077284614
 H         -2.3876324847       -3.0387373246        2.0799555958
 H         -0.5504683484       -5.4631492966        1.4590752437
 H         -0.1456330521       -4.0650364335        2.5411472441
 H         -0.8658716948       -3.8707881083       -0.4748484190
 O         -1.4899473932        0.0948364929        1.9978657274
