  62
        -98.93419271
 C         -2.5162269619       -0.3097930893        0.5729673102
 C         -2.1947328691        0.3248817144       -0.6497238344
 C         -1.9636696156        1.7839823258       -0.6073488448
 C         -2.0517056319        2.4250199259        0.5714458011
 C         -1.8475805675        3.8878704303        0.8692731097
 C         -0.3678763737        4.2948771819        0.8841824298
 C          0.4468748923        3.7888607835       -0.3026482182
 H          1.4824912930        4.1041442620       -0.1465219660
 H          0.4467128714        2.6969227080       -0.3003124825
 C          0.0003146841        4.3115704726       -1.6666835572
 H          0.0091810319        5.4039163486       -1.6510440119
 H          0.7462361070        3.9829910819       -2.3944679434
 C         -1.3717921988        3.8400234882       -2.1570798387
 H         -1.4155655854        4.0323971046       -3.2330248351
 H         -2.1760019133        4.4175135057       -1.7082752958
 C         -1.6332658853        2.3498548054       -1.9667626076
 H         -2.4647339469        2.0518744291       -2.6168010921
 H         -0.7678823323        1.7805385886       -2.3257139634
 H         -0.3136587183        5.3846794969        0.9304487701
 H          0.0864031808        3.8928995735        1.7937381581
 H         -2.4051833243        4.4961635559        0.1631300086
 H         -2.2658542110        4.0627657999        1.8635159728
 O         -2.3422990592        1.7669382617        1.7328739033
 C         -2.5428132433        0.4024357639        1.7715125695
 O         -2.7414033619       -0.0563059758        2.9173555740
 H         -0.1272649442       -1.2061382221        0.8610311875
 C         -0.2706924499       -2.0155719269        0.1585900048
 C         -1.5563548082       -2.4900614280       -0.0760115535
 C         -1.7191968365       -3.5475706033       -0.9590791260
 C         -0.6193574460       -4.0983064874       -1.5971904445
 C          0.6509828258       -3.5956868130       -1.3918568108
 C          0.8221493474       -2.5264890394       -0.5163340568
 N          2.0877082903       -1.9376867171       -0.3508584489
 S          2.3200585522       -0.6095280934        0.6425772541
 O          2.1806541184       -0.9737184448        2.0387758550
 O          1.4974206692        0.4749620229        0.1730078928
 C          4.0336774389       -0.2715089515        0.2856659485
 C          5.0161991207       -0.8442351600        1.0710931498
 C          6.3462268435       -0.5995304443        0.7673275862
 C          6.6700242060        0.2087563864       -0.3119914065
 C          5.6733406563        0.7792232491       -1.0897022426
 C          4.3417759152        0.5375888082       -0.7911114345
 H          3.5319125803        0.9632910738       -1.3608105503
 H          5.9278780134        1.4107345241       -1.9255368335
 H          7.7055521282        0.3983707592       -0.5463521319
 H          7.1229233834       -1.0384090028        1.3726048072
 H          4.7174720595       -1.4545571364        1.9082194306
 H          2.8662868031       -2.5787260328       -0.3690909221
 H          1.5017034161       -4.0092451258       -1.9103051339
 H         -0.7588797556       -4.9239948290       -2.2785422298
 H         -2.7050969465       -3.9315365817       -1.1636749565
 C         -2.6840740922       -1.8171280372        0.6702411071
 H         -2.5510400999       -2.0427039921        1.7428671125
 C         -4.0640586017       -2.3312166227        0.2871820470
 C         -5.2571635070       -1.4236437996        0.2892653885
 C         -4.7225980833       -1.9552065057       -1.0048051332
 H         -5.2981445726       -2.7074334085       -1.5242289031
 H         -4.1844547953       -1.2841185736       -1.6547821182
 H         -6.1937024848       -1.8113082059        0.6616661466
 H         -5.0915980833       -0.3815430144        0.5230234993
 H         -4.2351262652       -3.3414295513        0.6464617912
 O         -2.1034686336       -0.2837945408       -1.7479104464
