  62
        -98.94438022
 C          1.8762686601       -0.7982141066       -0.1483002447
 C          2.3787291351        0.5248875063       -0.1713300916
 C          3.8015163650        0.6606459628       -0.5175411764
 C          4.5204303505       -0.4406847335       -0.8019867337
 C          5.9890279099       -0.4505294164       -1.1108989228
 C          6.8225798016       -0.6400256277        0.1642651787
 C          6.4264371015        0.2959995989        1.3061305902
 H          5.4169325795        0.0449615774        1.6397532746
 H          7.1001857230        0.0934872909        2.1415481392
 C          6.4851547921        1.7886190431        0.9524097509
 H          6.9730151367        2.3235699558        1.7700048196
 H          7.0955756792        1.9345370065        0.0605160211
 C          5.1191300114        2.4451097849        0.7435169556
 H          5.2630125884        3.5286041815        0.7151315855
 H          4.4716887271        2.2244089607        1.5961030860
 C          4.3772430328        2.0485472307       -0.5392097125
 H          3.5235916454        2.7237103106       -0.6515766505
 H          5.0352264277        2.1805908292       -1.4005565184
 H          6.7001737769       -1.6696859380        0.5080369060
 H          7.8742607445       -0.4876854761       -0.0849743148
 H          6.1920052820       -1.2780759296       -1.7926583155
 H          6.2588765931        0.4840540757       -1.5986948622
 O          3.9947011637       -1.6922524826       -0.7932842013
 C          2.6672892908       -1.9040651219       -0.4588668974
 O          2.3138936665       -3.1003547113       -0.4818497890
 H         -1.6870425902        0.6443873902        0.8442491012
 C         -1.5113999806        0.5345509810       -0.2123157227
 C         -0.4882737305       -0.2726169125       -0.6830491113
 C         -0.2984872065       -0.3740730467       -2.0597065879
 C         -1.0912274791        0.3373854489       -2.9376911328
 C         -2.1017892242        1.1558308810       -2.4632800128
 C         -2.3087755765        1.2546278058       -1.0936402502
 N         -3.3207117459        2.0840833909       -0.5861491366
 S         -4.2754314216        1.5619976117        0.6801742847
 O         -5.4634430360        2.3837968290        0.5983026144
 O         -3.5497659321        1.6230120623        1.9228811247
 C         -4.6740908506       -0.1291271762        0.2765469751
 C         -5.4534951454       -0.3650911073       -0.8393019634
 C         -5.7405526399       -1.6732470882       -1.1920915988
 C         -5.2438342357       -2.7188444476       -0.4283488944
 C         -4.4675934556       -2.4650627667        0.6913699483
 C         -4.1771547905       -1.1578172048        1.0489022245
 H         -3.5772167628       -0.9181127078        1.9111630976
 H         -4.0857835989       -3.2792011303        1.2867737811
 H         -5.4649477042       -3.7375330401       -0.7054169495
 H         -6.3478783061       -1.8746278782       -2.0597486557
 H         -5.8335372105        0.4720145308       -1.4019266625
 H         -3.8675643799        2.5587259186       -1.2891671761
 H         -2.7157053497        1.7224821100       -3.1466536037
 H         -0.9233527430        0.2553544905       -4.0009828772
 H          0.4937699760       -1.0109193550       -2.4297562916
 C          0.4271332247       -1.0501679773        0.2301907668
 H          0.2515009615       -2.1226380553        0.0610142080
 C          0.2242602392       -0.7496091398        1.7005536956
 C         -0.7841348442       -1.5169492819        2.4989938303
 C          0.6797197322       -1.7565436089        2.7123536203
 H          1.1360093239       -1.4020978183        3.6245736205
 H          1.1084371176       -2.6747560592        2.3372920772
 H         -1.3358249519       -0.9949108994        3.2670978389
 H         -1.3468488213       -2.2814494850        1.9851535559
 H          0.3760110921        0.2973705505        1.9389185854
 O          1.6795622267        1.5402977728        0.0829052932
