  62
        -98.94878391
 C         -0.9323334793       -1.2959870644        0.0411424500
 C         -1.9012190299       -1.0447603593        1.0393589719
 C         -2.6304637053        0.2243226647        0.9220565767
 C         -2.3207311233        1.0689980640       -0.0785539397
 C         -3.0134653753        2.3751690202       -0.3382099361
 C         -4.1922075972        2.1976638548       -1.3052899607
 C         -5.1345464137        1.0562899185       -0.9235600840
 H         -5.9448840919        1.0441037171       -1.6555102093
 H         -4.6012774390        0.1076116586       -1.0168362240
 C         -5.7245314540        1.1664988198        0.4892830137
 H         -5.6228679009        2.1886945561        0.8557208020
 H         -6.7926227390        0.9439987732        0.4419442437
 C         -5.1146615169        0.2017937753        1.5081764543
 H         -5.1306887491       -0.8143895500        1.1060432196
 H         -5.7430141712        0.2093101138        2.4028941938
 C         -3.6814932477        0.5187696982        1.9549264944
 H         -3.6177575147        1.5581078349        2.2852109561
 H         -3.4486979201       -0.1236510860        2.8097079110
 H         -4.7504104736        3.1348131513       -1.3450805335
 H         -3.7944783014        1.9940531166       -2.3018729072
 H         -3.3624673588        2.7877805055        0.6066316121
 H         -2.2929311747        3.0662499052       -0.7780636787
 O         -1.3666728176        0.8044173903       -1.0059943175
 C         -0.6456917977       -0.3797982308       -0.9711521107
 O          0.2018836398       -0.4947024673       -1.8750238879
 H          1.0863351469       -0.4987691963        1.2770904068
 C          1.7964648089       -1.1699502883        0.8167770485
 C          1.3481187795       -2.3042367155        0.1535750618
 C          2.2907825080       -3.1576083333       -0.4086237097
 C          3.6413081286       -2.8707190915       -0.3169421711
 C          4.0808800327       -1.7242343764        0.3190698429
 C          3.1460243050       -0.8662288410        0.8871598310
 N          3.5485652403        0.3118357372        1.5377206061
 S          2.6410990166        1.7027706616        1.4039859381
 O          3.5529800784        2.7550298412        1.8079005488
 O          1.4348248320        1.5996984603        2.1892304000
 C          2.2332609667        1.9342061061       -0.3176036797
 C          3.0850758160        1.4926083243       -1.3090424444
 C          2.7630736044        1.7503827395       -2.6312058008
 C          1.6113752973        2.4549320312       -2.9393243473
 C          0.7729794241        2.9029003524       -1.9324010607
 C          1.0835895432        2.6383461195       -0.6092195509
 H          0.4474003252        2.9488777424        0.2056025913
 H         -0.1275448374        3.4446851937       -2.1744854131
 H          1.3599075253        2.6490463826       -3.9700788422
 H          3.4093349505        1.3938139809       -3.4170008141
 H          3.9766508911        0.9437036626       -1.0541170496
 H          4.5377933429        0.5099928526        1.4993035619
 H          5.1336276452       -1.4935194807        0.3794963355
 H          4.3615221110       -3.5432532022       -0.7570775326
 H          1.9657620332       -4.0483528630       -0.9208484715
 C         -0.1339396180       -2.5829446433        0.0950380163
 H         -0.4276746100       -3.0720906413        1.0368639603
 C         -0.5186491439       -3.4857189829       -1.0615141882
 C         -0.5605806044       -4.9741418243       -0.8898401407
 C         -1.8362021826       -4.1978889317       -1.0112928091
 H         -2.4124521977       -4.2843456650       -1.9202124694
 H         -2.4379344078       -4.0588626366       -0.1246803258
 H         -0.2626565171       -5.5976791645       -1.7193759986
 H         -0.3059184055       -5.3748437915        0.0798298552
 H         -0.2013115119       -3.0871253051       -2.0186548253
 O         -2.1437534001       -1.8447055754        1.9853405829
