  62
        -98.93677014
 C         -2.5741990845       -0.0638047747       -0.0837741279
 C         -2.2971408247       -1.1323044545       -0.9642710195
 C         -1.7915142455       -2.3826687302       -0.3679946201
 C         -1.6010399892       -2.4316608207        0.9635418832
 C         -1.0716469619       -3.5721316950        1.7931513635
 C          0.4515434976       -3.7304252568        1.6812261286
 C          0.9980210552       -3.6750256971        0.2577378089
 H          0.7580872248       -2.6993985605       -0.1695485936
 H          2.0881603635       -3.7330702158        0.3257085452
 C          0.5272178878       -4.7931068924       -0.6700957012
 H          1.0806882209       -4.6886148440       -1.6067751082
 H          0.7968904754       -5.7561800269       -0.2307957544
 C         -0.9662553545       -4.8130715701       -1.0059939655
 H         -1.5483675005       -5.2476733710       -0.1978165569
 H         -1.0952039028       -5.4713982990       -1.8701019988
 C         -1.5480191383       -3.4592172278       -1.3984580214
 H         -2.5171044947       -3.6216653423       -1.8857518265
 H         -0.9126602462       -3.0042995965       -2.1672653360
 H          0.7350348741       -4.6744369462        2.1511863187
 H          0.9179211635       -2.9147239087        2.2403878968
 H         -1.3204702859       -3.3418859918        2.8317770103
 H         -1.5764417574       -4.4964613633        1.5275440962
 O         -1.8652171308       -1.3674744826        1.7749235227
 C         -2.3162016404       -0.1592103107        1.2832569444
 O         -2.4652622776        0.7271330175        2.1475651796
 O         -2.4557174752       -1.0475029157       -2.2147129387
 C         -3.0088685388        1.2753737484       -0.6591415179
 C         -1.8782548559        2.2443922864       -0.4153353363
 C         -1.9986332133        3.4448769423        0.2705503674
 C         -0.8750715392        4.2002903207        0.5656676436
 C          0.3879380562        3.7717656097        0.1977251075
 C          0.5103332137        2.5913572849       -0.5193061713
 C         -0.6137492601        1.8527958687       -0.8380501006
 H         -0.5028214030        0.9195099418       -1.3768674607
 N          1.8106091830        2.0872944693       -0.8346767290
 S          2.2296355870        0.9477768672        0.3549061569
 O          1.4440159352       -0.2570819227        0.1956445316
 O          2.1576470629        1.6054656216        1.6350734045
 C          3.9331253064        0.6211468987       -0.0611422920
 C          4.2852637358       -0.5909800466       -0.6213619884
 C          5.6105408310       -0.8107266210       -0.9644488473
 C          6.5531846888        0.1822926526       -0.7468029792
 C          6.1832353597        1.3953695532       -0.1844989568
 C          4.8609100115        1.6203131705        0.1622870605
 H          4.5259298616        2.5423002099        0.6072400983
 H          6.9194860643        2.1646443336       -0.0163464286
 H          7.5830959402        0.0090839890       -1.0160831178
 H          5.9002785855       -1.7534732356       -1.3999749372
 H          3.5174656710       -1.3341382113       -0.7684064925
 H          1.7918907790        1.5850424383       -1.7151630319
 H          1.2729981478        4.3232036070        0.4688591265
 H         -0.9847419886        5.1227665632        1.1154099280
 H         -2.9695860554        3.7760703120        0.6012964698
 H         -3.1059144641        1.1133407187       -1.7426969278
 C         -4.3410723520        1.7248856580       -0.1041278871
 C         -5.1803082830        2.6978980220       -0.8761576992
 C         -5.6006252834        1.2636404575       -0.7719050529
 H         -6.4498556678        1.0166830399       -0.1529694074
 H         -5.4983079840        0.6344144637       -1.6439552091
 H         -5.7452510786        3.4376849926       -0.3298556960
 H         -4.7959603752        3.0457635531       -1.8229392236
 H         -4.3417040063        1.7894141908        0.9778233706
