  62
        -98.93776598
 C         -1.2192269316       -1.4597186973        0.3008436675
 C         -1.7699057561       -0.5023052307        1.1855713621
 C         -2.9936628874        0.1989044331        0.7525298975
 C         -3.4854626496       -0.0617685411       -0.4724873386
 C         -4.6947246132        0.5326983129       -1.1454221511
 C         -4.4473173575        1.9573723701       -1.6628437182
 C         -3.7408559912        2.8830908369       -0.6763296044
 H         -2.7643811177        2.4636632851       -0.4240251407
 H         -3.5539411747        3.8315467578       -1.1875995968
 C         -4.5191743597        3.1864886261        0.6023319482
 H         -3.9529904601        3.9445634298        1.1496888484
 H         -5.4855693311        3.6212351264        0.3373113266
 C         -4.7565696179        2.0027511930        1.5439032073
 H         -5.5785540125        1.3809542713        1.1991370396
 H         -5.0624807150        2.4138187806        2.5103121742
 C         -3.5237422411        1.1436019526        1.8039624757
 H         -2.6848311535        1.7942737837        2.0778938794
 H         -3.7087091674        0.5236611390        2.6895804300
 H         -3.8246377445        1.8904123579       -2.5586318810
 H         -5.4070711968        2.3913072930       -1.9495583533
 H         -4.9244341426       -0.1105936941       -1.9979815934
 H         -5.5474643573        0.5097602485       -0.4732966225
 O         -2.8782871954       -0.9368668312       -1.3236392032
 C         -1.7323618572       -1.6356426587       -0.9842437692
 O         -1.2917554461       -2.3580435449       -1.8978533283
 H          0.7146963869        0.1228243370       -0.3699934814
 C          1.3526801489       -0.6700403176       -0.7290757656
 C          1.1304764309       -1.9706833183       -0.2961493871
 C          1.9306622203       -2.9831312410       -0.8078038015
 C          2.9198679073       -2.6892670794       -1.7313949371
 C          3.1500325499       -1.3894317838       -2.1434384140
 C          2.3515738252       -0.3691142791       -1.6381504249
 N          2.5410887452        0.9671418960       -2.0204852153
 S          2.2608565896        2.1849771723       -0.9113150930
 O          0.8455997799        2.4055798188       -0.7458603103
 O          3.0158424705        3.3101338854       -1.4214170768
 C          2.9997658215        1.6015360966        0.6049847968
 C          4.3742704694        1.4596968301        0.6250075335
 C          4.9834343824        0.9651682503        1.7659710665
 C          4.2107239274        0.6166877521        2.8637078554
 C          2.8339806112        0.7709956649        2.8311268189
 C          2.2190228686        1.2686660223        1.6925895212
 H          1.1479863057        1.3907449090        1.6420103382
 H          2.2258262271        0.5006611399        3.6798300562
 H          4.6826021887        0.2245011008        3.7506993899
 H          6.0547771656        0.8493830199        1.7956001381
 H          4.9415873393        1.7505345101       -0.2441312912
 H          3.3558389872        1.1433019346       -2.5887939261
 H          3.9261438037       -1.1647827223       -2.8587290854
 H          3.5274660548       -3.4865305195       -2.1317364920
 H          1.7682561065       -4.0036376436       -0.5028140793
 C          0.0476368695       -2.1737791453        0.7341540975
 H          0.3599461743       -1.6273634224        1.6413742517
 C         -0.1402611570       -3.6236714939        1.1535128472
 C         -1.4851313452       -4.1484515294        1.5568011740
 C         -0.8414660498       -4.6299786508        0.2928349286
 H         -0.4563031317       -5.6390814074        0.2689704931
 H         -1.2380432906       -4.2886033667       -0.6498299758
 H         -1.5425974931       -4.8225187642        2.3984294156
 H         -2.3291352492       -3.4784742661        1.4740250811
 H          0.7035824422       -3.9881221216        1.7313482018
 O         -1.2555845616       -0.2320174811        2.3053790868
