  62
        -98.93901086
 C          2.2726903602        0.8062826805       -0.5176007805
 C          3.5995375502        1.1260673907       -0.1383867408
 C          4.6174917902        0.1183108706       -0.4532170605
 C          4.2602260702       -1.0156820897       -1.0831528799
 C          5.1856449801       -2.1277247298       -1.4969699996
 C          5.4819711503       -3.1400925994       -0.3820860792
 C          6.4020237604       -2.6322470689        0.7287042105
 H          6.6967241006       -3.4998808286        1.3223493108
 H          7.3083138804       -2.2171586890        0.2867050802
 C          5.7583020805       -1.5940852985        1.6584240701
 H          4.6721873505       -1.6254840886        1.5436518303
 H          5.9770474507       -1.8503893980        2.6974938202
 C          6.2381476705       -0.1597258386        1.4356857594
 H          5.6936848205        0.4940632517        2.1218386292
 H          7.3013945405       -0.0874644384        1.6750014093
 C          6.0215973903        0.3651547308        0.0100507792
 H          6.7347664002       -0.0955064694       -0.6730148907
 H          6.1859464102        1.4454172708        0.0132455988
 H          4.5345838804       -3.4693083692        0.0509317811
 H          5.9545058203       -4.0080678395       -0.8475855389
 H          6.1211189301       -1.7074538900       -1.8670604399
 H          4.6913885400       -2.6532396702       -2.3168289193
 O          2.9764877801       -1.2798014699       -1.4432976797
 C          1.9477543701       -0.3954045598       -1.1469835599
 O          0.8215635001       -0.7924576700       -1.5005970496
 O          3.9172030603        2.2020662709        0.4359138887
 C          1.1673415202        1.7951841406       -0.1888065707
 C          0.2353241803        1.1689980510        0.8191840797
 C          0.7240031605        0.9056171416        2.0967422897
 C         -0.0789066293        0.3066144419        3.0469278501
 C         -1.3835443394       -0.0389638782        2.7415449404
 C         -1.8795959695        0.2101949612        1.4662015003
 C         -1.0697503197        0.8168517408        0.5146345500
 H         -1.4674146898        1.0024515304       -0.4669512800
 N         -3.1841062696       -0.2019625390        1.1424753707
 S         -4.2526213497        0.6230588506        0.1426983105
 O         -3.6093681299        1.0210563501       -1.0808412598
 O         -4.9018865997        1.6792762509        0.8942448001
 C         -5.4116105997       -0.6905790196       -0.1797691488
 C         -4.9785328898       -1.7436136499       -0.9627653484
 C         -5.8499895898       -2.7898929701       -1.2184112078
 C         -7.1325205397       -2.7651981299       -0.6896542977
 C         -7.5523636697       -1.7009067695        0.0932578919
 C         -6.6847331297       -0.6512629594        0.3537897513
 H         -6.9681954896        0.1982285908        0.9538820710
 H         -8.5501607896       -1.6851631994        0.5011922220
 H         -7.8083156197       -3.5813659600       -0.8910925773
 H         -5.5263135199       -3.6186775203       -1.8275167275
 H         -3.9743418199       -1.7184486701       -1.3549924586
 H         -3.6932891595       -0.5256614086        1.9545708709
 H         -2.0114475593       -0.5092863379        3.4834434907
 H          0.3097477108        0.1097557624        4.0348805401
 H          1.7450296305        1.1760023217        2.3297939395
 H          1.6726066902        2.6431645508        0.2962974688
 C          0.4745816600        2.2941293800       -1.4376078509
 C         -0.3211010200        3.5627478900       -1.3830363313
 C          0.9833386699        3.5267563798       -2.1199043515
 H          0.9682993697        3.5614373993       -3.1988781915
 H          1.8329623499        4.0265111200       -1.6778094318
 H         -1.2392050701        3.6178020998       -1.9485103112
 H         -0.3572963699        4.0864827604       -0.4393522115
 H          0.1062365200        1.4938481398       -2.0691863105
