  62
        -98.93245796
 C         -2.4953087702       -1.1553514295        0.6279653998
 C         -3.3663338902       -0.9468592488       -0.4684518101
 C         -4.4661740502        0.0141425010       -0.2518476795
 C         -4.5699619203        0.6567649903        0.9229061809
 C         -5.6229834803        1.6382156300        1.3745123615
 C         -6.0932159003        2.6944201706        0.3662037621
 C         -5.0090081803        3.1965167412       -0.5983156676
 H         -4.9970515803        4.2879998112       -0.5816729569
 H         -4.0261849403        2.8561891610       -0.2667391078
 C         -5.2425549403        2.7507117721       -2.0437053478
 H         -6.3024902803        2.8681539422       -2.2796771478
 H         -4.6838720303        3.4131129425       -2.7092828874
 C         -4.8134487603        1.3197708423       -2.3642575687
 H         -3.7227858203        1.2473726223       -2.3407736087
 H         -5.1274507203        1.0954623329       -3.3864073788
 C         -5.3734620303        0.2360964817       -1.4282511994
 H         -6.3876803203        0.4709635715       -1.1151158192
 H         -5.3882477402       -0.7079620279       -1.9794899599
 H         -6.9289225403        2.3017574210       -0.2112365381
 H         -6.4802833103        3.5330014003        0.9477357427
 H         -6.4886826603        1.0682747198        1.7249750211
 H         -5.1908985003        2.1335844795        2.2475840118
 O         -3.6830558203        0.4536729997        1.9399631508
 C         -2.6385016502       -0.4424287202        1.8198630602
 O         -1.9142960102       -0.5244410308        2.8341129402
 H          0.9958360198       -1.6313674601        1.8621820495
 C          1.0059067598       -1.2484079095        0.8504722997
 C         -0.1112052702       -1.4207575091        0.0480168196
 C         -0.1012406502       -0.8855017883       -1.2372671601
 C          1.0136617698       -0.2155098780       -1.7049840296
 C          2.1338068798       -0.0580690684       -0.9057509396
 C          2.1231419798       -0.5637839592        0.3865451001
 N          3.2501388898       -0.4120438097        1.2079837802
 S          4.0867191997        1.0408639903        1.2162273511
 O          4.7689349197        1.0689302295        2.4913724711
 O          3.2223466797        2.1606594805        0.9240876618
 C          5.2916307897        0.8360278111       -0.0796630690
 C          5.4247754097        1.8021368317       -1.0574505384
 C          6.3776998397        1.6257907024       -2.0488853885
 C          7.1767376797        0.4929103924       -2.0445474592
 C          7.0324645198       -0.4668713782       -1.0536954698
 C          6.0830511998       -0.2958440789       -0.0591317997
 H          5.9417970598       -1.0164657994        0.7289198399
 H          7.6553606998       -1.3468267682       -1.0536497504
 H          7.9161482197        0.3571582829       -2.8179368593
 H          6.4915931297        2.3713469128       -2.8193774581
 H          4.7778424697        2.6645817517       -1.0246773079
 H          3.1272074198       -0.7672772803        2.1449501700
 H          3.0010519897        0.4699315518       -1.2667102492
 H          1.0128766797        0.1911896426       -2.7050167294
 H         -0.9789848502       -0.9987336779       -1.8556664701
 C         -1.3264694902       -2.1276698394        0.5901322792
 H         -1.1254600302       -2.3669041401        1.6462631890
 C         -1.6539120802       -3.4349638790       -0.1198497816
 C         -0.9035822702       -3.9464464182       -1.3101059019
 C         -0.7226280702       -4.6030909891        0.0226937877
 H         -1.1414241601       -5.5847990892        0.1843412971
 H          0.2089325798       -4.4296134694        0.5409280078
 H         -0.0894714902       -3.3552367680       -1.6981421216
 H         -1.4700695502       -4.4613216578       -2.0709709622
 H         -2.7145875702       -3.6588077090       -0.0934755118
 O         -3.2620640302       -1.5328097381       -1.5750621204
