  62
        -98.93256935
 C         -2.3248141686       -0.9927673473        0.0563994828
 C         -3.5757523968       -0.9224986518        0.7222183196
 C         -4.5973744468       -0.0639593134        0.1093952027
 C         -4.3067527312        0.6111089540       -1.0166556009
 C         -5.2389077854        1.4911099581       -1.8068662832
 C         -5.7245275245        2.7735613801       -1.1042119707
 C         -7.0692192851        2.6280686531       -0.3810906495
 H         -7.6547718010        3.5353146274       -0.5433884372
 H         -7.6271466693        1.8099159017       -0.8382957451
 C         -6.9931236558        2.4112582585        1.1332885203
 H         -6.7829785002        3.3663164547        1.6201712821
 H         -7.9764090060        2.0788849121        1.4731830382
 C         -5.9399154556        1.4122786280        1.6129683598
 H         -4.9484735325        1.8680149481        1.5554660976
 H         -6.1224973017        1.2049406754        2.6692892472
 C         -5.9061360876        0.0858950589        0.8289963562
 H         -6.7377331408        0.0315292726        0.1278999450
 H         -5.9817729699       -0.7564438615        1.5196332037
 H         -4.9562963932        3.1239372978       -0.4153628973
 H         -5.8353731678        3.5345493866       -1.8783275447
 H         -4.6847166594        1.7661385454       -2.7066167268
 H         -6.1029174257        0.8979855071       -2.1152762343
 O         -3.0874693990        0.5355642908       -1.6132321848
 C         -2.0620930661       -0.2466732103       -1.0940388553
 O         -1.0079061633       -0.1825361315       -1.7517845360
 O         -3.8297131318       -1.5552497258        1.7817300912
 C         -1.2514379267       -1.8636744974        0.6861216662
 C          0.0311647030       -1.0856562639        0.8284489446
 C          0.1300469791       -0.1210274096        1.8269360416
 C          1.2823105083        0.6272657426        1.9748606057
 C          2.3578452710        0.4352585448        1.1254595918
 C          2.2687611266       -0.5223104501        0.1247026883
 C          1.1149441523       -1.2836746057       -0.0116567726
 H          1.0502244061       -2.0127104275       -0.8045617367
 N          3.3451295575       -0.7027861946       -0.7575055717
 S          4.8965758543       -0.8392076756       -0.1452398778
 O          5.6393863526       -1.5671009743       -1.1511213588
 O          4.8936286616       -1.4064648306        1.1837099816
 C          5.4892698407        0.8390218923       -0.0905486255
 C          5.4297749851        1.5881567681       -1.2492480915
 C          5.8971781534        2.8924038298       -1.2274986318
 C          6.4158980114        3.4217534404       -0.0550694256
 C          6.4713545043        2.6558279035        1.0991811002
 C          6.0047172668        1.3505180331        1.0841612817
 H          6.0230059536        0.7198096079        1.9587620154
 H          6.8746934486        3.0693674762        2.0095540785
 H          6.7786343361        4.4374480713       -0.0413004408
 H          5.8545978170        3.4912580562       -2.1230737988
 H          5.0207634628        1.1404403492       -2.1397268715
 H          3.1693388373       -1.3723221621       -1.4915845718
 H          3.2576564199        1.0193331901        1.2297668258
 H          1.3439767960        1.3709168499        2.7549395580
 H         -0.7139192239        0.0376575079        2.4844542058
 H         -1.6340676415       -2.0727131824        1.6986624077
 C         -1.0573244967       -3.2156023947        0.0157503676
 C         -2.2316047053       -3.9691944140       -0.5314167481
 C         -1.1897178621       -3.4276936015       -1.4614432397
 H         -0.5169175432       -4.1270017222       -1.9371884451
 H         -1.4365688053       -2.5759659310       -2.0753150543
 H         -2.2797012803       -5.0360631251       -0.3736306359
 H         -3.1932534676       -3.4779481824       -0.5018548285
 H         -0.2992347904       -3.8062431717        0.5226418674
