  62
        -98.94831487
 C          1.3177636550        1.5615137271        0.2175722999
 C          1.6482451195        0.5977104665        1.2005991259
 C          2.9104905822       -0.1197657396        0.9985941975
 C          3.6737142754        0.1633211502       -0.0729535165
 C          5.0165091987       -0.4387179465       -0.3880668627
 C          4.9478498913       -1.7800794677       -1.1297073211
 C          4.4837419693       -2.9648935318       -0.2821154587
 H          4.6867370965       -3.8710662601       -0.8562895717
 H          5.0803554077       -3.0158394377        0.6293969055
 C          2.9922606473       -2.9347080351        0.0780238877
 H          2.4626814440       -2.2426610319       -0.5813814792
 H          2.5487015749       -3.9182687366       -0.0938958165
 C          2.6881907987       -2.5560628629        1.5272402893
 H          1.6003158439       -2.5186128242        1.6318105220
 H          3.0663376955       -3.3321416402        2.1971792925
 C          3.2671434416       -1.2049654615        1.9684319711
 H          4.3490182379       -1.2795129593        2.0796419519
 H          2.8314317609       -0.9451874046        2.9365080333
 H          4.2858138332       -1.6702774358       -1.9918961998
 H          5.9507041181       -1.9978124035       -1.5045844183
 H          5.5862613647       -0.5611090583        0.5336014519
 H          5.5353698204        0.2801041615       -1.0260856875
 O          3.3111595433        1.0813030681       -1.0077431441
 C          2.1087977382        1.7691376115       -0.9117023735
 O          1.8758412170        2.5267194875       -1.8729412861
 O          0.9234706467        0.3558371037        2.2039069157
 C          0.0111862938        2.3212417893        0.3515666353
 C         -0.9641392192        1.8719830780       -0.7095464977
 C         -1.7824916613        2.7363761247       -1.4253493952
 C         -2.6759731392        2.2385479083       -2.3587293247
 C         -2.7988409766        0.8778046150       -2.5743675406
 C         -1.9890545393        0.0044191822       -1.8571900304
 C         -1.0746155571        0.5088614080       -0.9478078783
 H         -0.4302881693       -0.1782224623       -0.4218021735
 N         -2.0835295703       -1.3864852068       -2.0185991734
 S         -1.9289714506       -2.3588886122       -0.6619294958
 O         -0.5440937381       -2.4877656801       -0.2900904317
 O         -2.5973018902       -3.5897697686       -1.0312151552
 C         -2.8691520817       -1.5215136387        0.6026983228
 C         -2.2460077982       -0.8874805829        1.6576118122
 C         -3.0262549387       -0.2063539349        2.5800069746
 C         -4.4036327108       -0.1701568450        2.4349089546
 C         -5.0153002740       -0.8199123053        1.3731277235
 C         -4.2424448509       -1.4995132839        0.4471454397
 H         -4.6800186310       -2.0266366299       -0.3852119025
 H         -6.0875007247       -0.7953038375        1.2639276859
 H         -5.0026087321        0.3653247186        3.1545350225
 H         -2.5426422791        0.2958402523        3.4029105030
 H         -1.1713158784       -0.9171422433        1.7528658696
 H         -2.8350223276       -1.6957006396       -2.6173018473
 H         -3.5055800962        0.4930839271       -3.2933942882
 H         -3.2968891183        2.9214483768       -2.9182548179
 H         -1.7158017971        3.7988591549       -1.2590926158
 H         -0.4017709335        2.0117795703        1.3244505821
 C          0.2419769736        3.8166463126        0.3770433463
 C         -0.6931062667        4.7085393236        1.1364696656
 C          0.6892426210        4.4565838813        1.6562841261
 H          1.4156900685        5.2536801675        1.6068418285
 H          0.8048301274        3.8154142891        2.5180806046
 H         -0.9161807741        5.6845454494        0.7327265678
 H         -1.5195199997        4.2431147269        1.6518492390
 H          0.6735867021        4.1884756021       -0.5449277791
