  62
        -98.94569870
 C         -0.9787271170       -1.1538749724       -0.2593196069
 C         -2.0248741901       -1.2248453415        0.6983409190
 C         -2.9149198888       -0.0612432780        0.7843228114
 C         -2.6965906045        0.9895044206       -0.0266840017
 C         -3.5660824778        2.2106699865       -0.0987993153
 C         -4.6738889793        2.0425012052       -1.1484756070
 C         -5.4484162699        0.7301968874       -1.0278388041
 H         -6.2221786037        0.7370512462       -1.7987551441
 H         -4.7777299656       -0.1018291934       -1.2543441184
 C         -6.0961194204        0.4987528624        0.3445029106
 H         -6.1594664780        1.4417831838        0.8885209430
 H         -7.1175106153        0.1425860940        0.1941811391
 C         -5.3849732451       -0.5406520775        1.2128984802
 H         -5.2385623342       -1.4589753004        0.6386652982
 H         -6.0374816204       -0.7833745519        2.0558958161
 C         -4.0301171196       -0.1121259854        1.7905774638
 H         -4.1349375011        0.8485998539        2.2981976050
 H         -3.7331703404       -0.8619497632        2.5294261076
 H         -5.3645670018        2.8831094458       -1.0596160263
 H         -4.2189549609        2.0798772571       -2.1409959960
 H         -4.0052641596        2.3957670572        0.8794687803
 H         -2.9443753330        3.0615528558       -0.3791175831
 O         -1.6786639120        1.0304867896       -0.9200917497
 C         -0.7897692030       -0.0265118705       -1.0591529299
 O          0.0879937635        0.1781843029       -1.9198168800
 H          1.9967638166       -0.6303541649       -0.8114040862
 C          2.1298998907       -1.1949239720        0.0979344257
 C          1.1795615830       -2.1321432731        0.4809989597
 C          1.3724357410       -2.8397790183        1.6624728657
 C          2.4936415890       -2.6186194588        2.4416285873
 C          3.4355356393       -1.6800589661        2.0629302100
 C          3.2483382774       -0.9619478365        0.8856292884
 N          4.1866104420       -0.0002997230        0.4935353796
 S          3.7989230975        1.2819773229       -0.4946390270
 O          3.7035267505        0.8475233703       -1.8647309476
 O          4.8475121296        2.2477140498       -0.2266780833
 C          2.2508899061        1.9651969026        0.0733850663
 C          1.9002227804        1.8884495670        1.4062503618
 C          0.7283714860        2.4967735896        1.8264556166
 C         -0.0588971112        3.1851552420        0.9175507479
 C          0.3111560137        3.2603817637       -0.4154695753
 C          1.4738531261        2.6410982453       -0.8443074463
 H          1.7823872893        2.6544475585       -1.8771090780
 H         -0.3041043946        3.7868535515       -1.1276168436
 H         -0.9677378638        3.6610791497        1.2513407668
 H          0.4333378022        2.4313834479        2.8615822117
 H          2.5260717535        1.3547168762        2.1028107332
 H          4.8916654232        0.2346026954        1.1756666226
 H          4.3095294680       -1.4994454636        2.6697722583
 H          2.6324319102       -3.1762241086        3.3552113650
 H          0.6260571923       -3.5555929997        1.9736979392
 C         -0.0605936064       -2.3623772806       -0.3485035056
 H         -0.6235710041       -3.1824172873        0.1184220374
 C          0.2861073313       -2.7712242933       -1.7652686706
 C          0.7097099370       -4.1846746943       -2.0262317138
 C         -0.6270171136       -3.7023041234       -2.5024595670
 H         -0.7758323111       -3.5464512410       -3.5604443035
 H         -1.5085579743       -4.0523337329       -1.9849903065
 H          1.4837309716       -4.3621438158       -2.7570866964
 H          0.7326219479       -4.8637035718       -1.1872273899
 H          0.7649355132       -1.9894369723       -2.3403467992
 O         -2.2087443495       -2.2244084898        1.4432411195
