  62
        -98.93760698
 C          1.9275666918        0.7952058956        0.6175300257
 C          2.1322485544        0.1213617271       -0.6086265423
 C          2.4301014989       -1.3174013592       -0.5172542359
 C          2.4177061808       -1.9196385383        0.6835474703
 C          2.6470152351       -3.3772480458        0.9960631679
 C          3.8307771895       -4.0684054262        0.3010977384
 C          5.0240083729       -3.1567862519       -0.0214030799
 H          4.9179203867       -2.2030763480        0.4983197367
 H          5.9377124508       -3.6281377243        0.3453316896
 C          5.1958918988       -2.9061617880       -1.5217919853
 H          5.0437179184       -3.8484571772       -2.0523421759
 H          6.2242778585       -2.5878469122       -1.7082619715
 C          4.2780439299       -1.8412861223       -2.1217314156
 H          4.5822393286       -0.8506560547       -1.7733045164
 H          4.4104344009       -1.8545488397       -3.2061419685
 C          2.7816176746       -2.0018633203       -1.8064200306
 H          2.2128209615       -1.4861856777       -2.5850127111
 H          2.4877654298       -3.0487717926       -1.7987716763
 H          3.4862171373       -4.5371989085       -0.6196842739
 H          4.1570249945       -4.8736922913        0.9612354604
 H          2.7825427572       -3.4173099796        2.0794900026
 H          1.7258604284       -3.9207595796        0.7660669616
 O          2.1496633206       -1.2424278059        1.8371700501
 C          1.9123159629        0.1211350798        1.8360611497
 O          1.7101185020        0.6104141592        2.9676717435
 H         -0.6886316162        1.0600569783        0.8784479252
 C         -0.7299174418        1.8119408055        0.1021410990
 C          0.4016544017        2.5686457729       -0.1785368992
 C          0.3262162905        3.5368879323       -1.1705173103
 C         -0.8473080528        3.7160996604       -1.8827257569
 C         -1.9609710523        2.9406783065       -1.6220038390
 C         -1.9023013467        1.9836465109       -0.6135057594
 N         -3.0353477869        1.2147323455       -0.2945585129
 S         -2.8374918020       -0.3451552124        0.3136101314
 O         -2.5203919104       -0.2627049866        1.7180322814
 O         -1.9209472100       -1.1018640086       -0.5112183377
 C         -4.5037758632       -0.9498348791        0.1148354277
 C         -5.4572702170       -0.5562379429        1.0351186879
 C         -6.7656607444       -0.9808310704        0.8679757176
 C         -7.0975354771       -1.7873084113       -0.2107925974
 C         -6.1295985884       -2.1766698615       -1.1242505487
 C         -4.8190753187       -1.7534744249       -0.9641026213
 H         -4.0316080756       -2.0343107185       -1.6450838558
 H         -6.3896055835       -2.8060680612       -1.9600011045
 H         -8.1166913945       -2.1159842212       -0.3390375826
 H         -7.5199907399       -0.6816473180        1.5776096263
 H         -5.1487920412        0.0635947884        1.8607875217
 H         -3.7404195630        1.2396509533       -1.0189453265
 H         -2.8703060646        3.0722959942       -2.1883188668
 H         -0.8902621121        4.4634660919       -2.6604167760
 H          1.1891351781        4.1410412895       -1.3967416639
 C          1.6484391986        2.2874146786        0.6246026500
 H          1.4442881347        2.5524927901        1.6729064465
 C          2.8662174619        3.0536937482        0.1521962088
 C          3.1071737153        4.4537489618        0.6283622191
 C          3.9670398400        3.3334113858        1.1290561637
 H          4.9889616035        3.2717357743        0.7862350497
 H          3.8257995130        2.9900781059        2.1439488865
 H          2.3855920418        4.8801320870        1.3086435869
 H          3.5432984394        5.1642039801       -0.0574026577
 H          3.1499994971        2.7980595599       -0.8622098999
 O          2.0763058826        0.6917822435       -1.7296281245
