  62
        -98.94313450
 C         -1.8934947789       -1.1265581398        0.3339991205
 C         -2.4565714092       -0.1135440199        1.1533196503
 C         -3.8694014193        0.2018010397        0.9189879201
 C         -4.5570020990       -0.4791294306       -0.0153965899
 C         -6.0123328490       -0.2999373210       -0.3528353501
 C         -6.2902750591        0.8432613789       -1.3382102803
 C         -6.1321331296        2.2508592290       -0.7621001904
 H         -6.5643257996        2.9442741188       -1.4862397405
 H         -6.7144091997        2.3344394389        0.1560606095
 C         -4.6786098997        2.6641257094       -0.4911047803
 H         -4.0021068695        1.9984872995       -1.0325139801
 H         -4.5081702299        3.6725333394       -0.8750425603
 C         -4.2858226399        2.6710616096        0.9864535198
 H         -4.8635036402        3.4320411895        1.5160765296
 H         -3.2286611100        2.9407850299        1.0588162099
 C         -4.4813495797        1.3261061796        1.6985413099
 H         -3.9757962098        1.3740780699        2.6662688100
 H         -5.5420972396        1.1402888494        1.8666459498
 H         -7.3195733991        0.7300373386       -1.6861259904
 H         -5.6321976790        0.7276915289       -2.2024224902
 H         -6.5827667091       -0.1395888710        0.5625005098
 H         -6.3421736387       -1.2355888411       -0.8093593601
 O         -3.9894817986       -1.4572017905       -0.7658819897
 C         -2.6483372586       -1.7933146401       -0.6319194895
 O         -2.2840685182       -2.6913622601       -1.4140223393
 O         -1.8097865495        0.4909037404        2.0509664504
 C         -0.4248038088       -1.4545448695        0.5529444308
 C          0.4183394112       -0.8193520594       -0.5269602592
 C          0.5019837615       -1.3539136395       -1.8090441991
 C          1.2609012515       -0.7273513994       -2.7801581491
 C          1.9657724511        0.4280217008       -2.4910585291
 C          1.8876478308        0.9720279909       -1.2152089292
 C          1.1135325308        0.3493676508       -0.2455179292
 H          1.0467230306        0.7959457209        0.7357916207
 N          2.5959489705        2.1440614912       -0.8879804892
 S          3.5992610303        2.1053036516        0.4529919509
 O          2.8178275701        2.0990312815        1.6621651608
 O          4.4953142800        3.2264166218        0.2738953209
 C          4.4910354007        0.5712749018        0.2761888612
 C          5.5771826208        0.5381351819       -0.5766090586
 C          6.2280306212       -0.6664236079       -0.7869399184
 C          5.7759992214       -1.8139838680       -0.1531338984
 C          4.6847264312       -1.7642934781        0.7001929115
 C          4.0332790009       -0.5607638483        0.9190743213
 H          3.1845124608       -0.4777344584        1.5783995111
 H          4.3345794814       -2.6575531382        1.1924646015
 H          6.2776735316       -2.7535364579       -0.3225453882
 H          7.0804461513       -0.7082660178       -1.4456067583
 H          5.8998349207        1.4548209020       -1.0432505087
 H          3.0855251405        2.5539587212       -1.6711346492
 H          2.5632714311        0.9122941409       -3.2486646491
 H          1.3104873717       -1.1482598995       -3.7728788990
 H         -0.0591716683       -2.2432158996       -2.0468437591
 H         -0.1674276491       -0.9662093093        1.5031430907
 C         -0.1632341585       -2.9403652094        0.6924310610
 C          1.0693322216       -3.3969270390        1.4110013312
 C         -0.2768908885       -3.5741341193        2.0451293210
 H         -0.6917145982       -4.5684818993        2.1144072311
 H         -0.5385367887       -2.9347547892        2.8761185609
 H          1.5842858918       -4.2716529489        1.0453673013
 H          1.7182100313       -2.6356585988        1.8168248112
 H         -0.5022242882       -3.5236590695       -0.1530630690
