  62
        -98.93467874
 C          1.7040592405       -0.2200099697       -0.4648947227
 C          2.9008887841       -0.3581510122       -1.2079779745
 C          4.1530854143       -0.5361367893       -0.4472085986
 C          4.0961542267       -0.5271207255        0.8973549684
 C          5.2315510891       -0.6478380525        1.8785914714
 C          6.0499899869        0.6479604917        1.9992985741
 C          6.3739727314        1.3307235119        0.6729686849
 H          5.4433933806        1.5528800718        0.1473265860
 H          6.8530816842        2.2868364180        0.9001162568
 C          7.3055510277        0.5501474307       -0.2512276809
 H          8.2508899746        0.3672352990        0.2646057568
 H          7.5164107907        1.1881777462       -1.1134000928
 C          6.7689156060       -0.7855928529       -0.7697103919
 H          6.8345553902       -1.5569460553       -0.0070977543
 H          7.4219438087       -1.1025437603       -1.5882192130
 C          5.3553388212       -0.7267413146       -1.3403032958
 H          5.3037205550        0.0719148657       -2.0892030815
 H          5.1658077583       -1.6530726892       -1.8964642375
 H          5.4757738988        1.3539909630        2.6042018729
 H          6.9759414786        0.4232051073        2.5312783001
 H          4.7838782173       -0.8670649734        2.8504034711
 H          5.8685367181       -1.4856275974        1.6108025708
 O          2.9254666495       -0.3507965589        1.5724001372
 C          1.7092022370       -0.1899480060        0.9299515240
 O          0.7457964901       -0.0331968912        1.7020284608
 O          2.9309781132       -0.3257628216       -2.4682322600
 C          0.4111664333       -0.0346565730       -1.2373435090
 C         -0.3818459374        1.1141721691       -0.6677586740
 C          0.2206903078        2.3676714039       -0.5841618244
 C         -0.4609031285        3.4470857027       -0.0594301621
 C         -1.7702751987        3.3083664622        0.3684944138
 C         -2.3844368165        2.0669698817        0.2790395212
 C         -1.6882618339        0.9785358960       -0.2288202391
 H         -2.1777379841        0.0202413934       -0.2620575281
 N         -3.7094702594        1.8816349739        0.7034058889
 S         -4.7457577934        0.9852930335       -0.2572008322
 O         -4.4217125515        1.1238160394       -1.6584120065
 O         -6.0720383670        1.4169616222        0.1315238632
 C         -4.5237743861       -0.7037432559        0.2582501931
 C         -4.4640974836       -1.6961276202       -0.7000341274
 C         -4.3423602294       -3.0155903386       -0.2932374961
 C         -4.2841083808       -3.3175853737        1.0588472947
 C         -4.3445628933       -2.3087205434        2.0082543193
 C         -4.4697423741       -0.9880764876        1.6081467494
 H         -4.5191537648       -0.1796161125        2.3181548877
 H         -4.2937907674       -2.5475714897        3.0582963000
 H         -4.1866862952       -4.3446976316        1.3736291467
 H         -4.2918781336       -3.8008366669       -1.0309020930
 H         -4.5030829249       -1.4150438652       -1.7405105353
 H         -4.1602323234        2.7100336491        1.0640441157
 H         -2.3081163596        4.1525283402        0.7731779548
 H          0.0252427974        4.4088682274        0.0094417038
 H          1.2408275332        2.4798001127       -0.9267070331
 H          0.7387697966        0.2553676652       -2.2505865445
 C         -0.4076812111       -1.3071568633       -1.3958624078
 C          0.2452276015       -2.6559557906       -1.3786906303
 C         -0.6535340708       -2.2449042034       -0.2531643133
 H         -1.6247853127       -2.7107856378       -0.1737916804
 H         -0.2107736425       -1.9954224658        0.6979014176
 H         -0.1064316544       -3.4031807408       -2.0739827945
 H          1.3094855648       -2.6946036235       -1.1969129284
 H         -1.2219741309       -1.1769143980       -2.1032057015
