  62
        -98.93914588
 C         -2.3661403094       -1.2699056407       -0.0119606100
 C         -3.1395949994       -0.5330956010        0.9117416202
 C         -3.8655017298        0.6417559789        0.3907150305
 C         -3.7416810401        0.9502390291       -0.9138947995
 C         -4.3363886505        2.1203429291       -1.6510081992
 C         -3.5904231908        3.4349505592       -1.3675625291
 C         -3.2271985806        3.6667011191        0.0972143409
 H         -2.6164472803        2.8330383492        0.4502706906
 H         -2.6036143708        4.5636115692        0.1464066309
 C         -4.4117741305        3.8668781387        1.0399096911
 H         -4.9867794607        4.7348155286        0.7098086913
 H         -4.0042209104        4.0950429186        2.0281880910
 C         -5.3648718202        2.6782501084        1.1800797710
 H         -6.0083255001        2.8785258881        2.0417267812
 H         -6.0203177403        2.5995567484        0.3171273211
 C         -4.6840268598        1.3400105685        1.4503757707
 H         -4.0236177697        1.4440146686        2.3189560606
 H         -5.4494653396        0.6165632083        1.7564044007
 H         -4.2006901010        4.2641690791       -1.7290923689
 H         -2.6597111508        3.4251539196       -1.9409828893
 H         -4.2508815406        1.8963551593       -2.7165200593
 H         -5.3921342705        2.2134300688       -1.4148267390
 O         -2.9718903500        0.2160453495       -1.7678517597
 C         -2.2640125097       -0.8966484104       -1.3516575800
 O         -1.6024708597       -1.4540504701       -2.2475225702
 H         -0.2372945495       -0.2963691203        1.1753678198
 C          0.4208337406       -1.0119219401        0.6964400296
 C         -0.1031808991       -2.2246396902        0.2645673195
 C          0.7516298510       -3.1322794199       -0.3455427208
 C          2.0879181709       -2.8199987995       -0.5303652710
 C          2.6012600006       -1.6076967895       -0.1084734809
 C          1.7562167805       -0.6944434198        0.5089047994
 N          2.2677046003        0.5399640503        0.9518022195
 S          3.0969326099        1.4841980507       -0.1659362605
 O          2.9466258996        2.8438034606        0.3067601698
 O          2.6593761797        1.2195966008       -1.5169431804
 C          4.7924830501        0.9826826010        0.0423315592
 C          5.3620400802        1.1216115610        1.2929281191
 C          6.6798998603        0.7339791213        1.4745197489
 C          7.4022703103        0.2193864016        0.4080860287
 C          6.8172474401        0.0904582417       -0.8423322213
 C          5.4988124800        0.4756345814       -1.0305633110
 H          4.9997327399        0.3894978614       -1.9828462709
 H          7.3804355301       -0.3088226781       -1.6704634014
 H          8.4275946204       -0.0826870082        0.5519790685
 H          7.1383374405        0.8335370912        2.4451707188
 H          4.7666999702        1.5300640707        2.0923073793
 H          1.5840168702        1.1025661601        1.4382577197
 H          3.6391421506       -1.3590922592       -0.2581857210
 H          2.7390196710       -3.5322558993       -1.0137225112
 H          0.3700152812       -4.0795894199       -0.6887755409
 C         -1.5770648791       -2.4714328206        0.4762814797
 H         -1.7637430389       -2.5229243808        1.5594596197
 C         -2.0831234788       -3.7444580006       -0.1669750005
 C         -1.9398563984       -5.0558696807        0.5443908193
 C         -3.2891703186       -4.4178956410        0.4137053596
 H         -4.0079126886       -4.8585569410       -0.2607008503
 H         -3.7324641886       -3.9696253712        1.2909786398
 H         -1.4684108383       -5.0481192807        1.5153643693
 H         -1.7338490583       -5.9396315905       -0.0401851608
 H         -1.9889599790       -3.7307144304       -1.2469814005
 O         -3.2139681992       -0.8312720812        2.1357945502
