  62
        -98.93134337
 C         -2.3284313151        0.8238289533        0.0426228408
 C         -3.5483699631        0.8995402368       -0.6670521795
 C         -4.6762402087        0.1124635786       -0.1353173984
 C         -4.4927744067       -0.6164481359        0.9804071112
 C         -5.4764308856       -1.5025844320        1.7022864717
 C         -6.8979844964       -0.9495124614        1.8868160537
 C         -7.9446339451       -1.6651783098        1.0311026754
 H         -7.7174502420       -2.7332838621        1.0256851940
 H         -8.9230899952       -1.5428408453        1.5009132887
 C         -8.0587616601       -1.1662179612       -0.4083333991
 H         -8.7275721006       -1.8459158022       -0.9416485492
 H         -8.5275724197       -0.1797761141       -0.4129283079
 C         -6.7385280057       -1.0755930269       -1.1762582360
 H         -6.1094328746       -1.9381241612       -0.9588288792
 H         -6.9700113021       -1.1120288596       -2.2430053198
 C         -5.9604901211        0.2222253830       -0.9113911388
 H         -6.6093164924        0.9519530801       -0.4184768313
 H         -5.6686799385        0.6758141027       -1.8637869540
 H         -7.1727642964       -1.0821187002        2.9344859210
 H         -6.9090044085        0.1201393916        1.6837282199
 H         -5.5170648962       -2.4653318769        1.1866097998
 H         -5.0222470841       -1.6923105974        2.6774483946
 O         -3.2939599892       -0.6644691196        1.6288311629
 C         -2.1861810510        0.0360620683        1.1837686199
 O         -1.1674217609       -0.1183857046        1.8828151212
 O         -3.6916634418        1.5937190253       -1.7103510713
 C         -1.1279000845        1.5941776376       -0.4794833914
 C         -0.0658804499        0.6065925411       -0.8962732437
 C         -0.3441571256       -0.2551405024       -1.9547987525
 C          0.5785317999       -1.2001876340       -2.3583576369
 C          1.7972237850       -1.3130033280       -1.7115207564
 C          2.0860285505       -0.4578547663       -0.6576059133
 C          1.1620525073        0.5043595524       -0.2642377118
 H          1.3993478375        1.1594227570        0.5591921682
 N          3.3097056863       -0.5812756423        0.0241034001
 S          4.7054975171       -0.8169505932       -0.8948545012
 O          4.7465948236        0.1293642854       -1.9879207217
 O          4.7838026025       -2.2076678283       -1.2660713115
 C          5.9669900303       -0.4398282422        0.3052981458
 C          6.3478986968       -1.4227275603        1.1989558097
 C          7.3092402508       -1.1249394810        2.1515296975
 C          7.8694714034        0.1432305777        2.1949881928
 C          7.4775916419        1.1188442025        1.2906700903
 C          6.5157187430        0.8281532395        0.3359873720
 H          6.1873196255        1.5524572912       -0.3921845953
 H          7.9173341511        2.1026060876        1.3252647853
 H          8.6185746718        0.3718444357        2.9365625016
 H          7.6181868510       -1.8811759977        2.8550373116
 H          5.8912373995       -2.3956221286        1.1220714178
 H          3.4397847301        0.1512350576        0.7082645391
 H          2.5260999557       -2.0478998580       -2.0131150684
 H          0.3488547178       -1.8598751915       -3.1819915374
 H         -1.2998333390       -0.1736006466       -2.4547982414
 H         -1.4836116596        2.1112698509       -1.3819469173
 C         -0.6611376610        2.6273355694        0.5227724971
 C          0.1804109578        3.7802166444        0.0653135111
 C         -1.2442889831        4.0064069418        0.4708753848
 H         -1.4416508178        4.5171131758        1.4014109572
 H         -1.9714432614        4.2105215241       -0.3013143416
 H          0.9614887462        4.1410560048        0.7172349249
 H          0.4242172912        3.8325041387       -0.9850988958
 H         -0.4662440266        2.2067913446        1.5025319304
