  62
        -98.94332884
 C         -2.5957221865       -0.0579867444       -0.0999223598
 C         -2.3968208163       -1.1273400984       -1.0040812004
 C         -2.0010259312       -2.4101283736       -0.4109141647
 C         -1.8282215020       -2.4923646897        0.9209243180
 C         -1.4269817135       -3.7374324409        1.6576807964
 C          0.0933524352       -3.8355697076        1.8362554727
 C          0.8893788155       -3.6159016411        0.5498191207
 H          0.7929953158       -2.5695297284        0.2503406523
 H          1.9419537327       -3.7773406788        0.7957397777
 C          0.4919362204       -4.5325562767       -0.6155079697
 H         -0.0426701817       -5.4040762773       -0.2354562282
 H          1.4024817463       -4.8953620918       -1.0971395809
 C         -0.3460361650       -3.8570311285       -1.7028381117
 H          0.1241033590       -2.9124218790       -1.9888409168
 H         -0.3472510141       -4.5049095882       -2.5836836165
 C         -1.8098905048       -3.5745862253       -1.3417296148
 H         -2.3363920418       -3.3095362079       -2.2634217179
 H         -2.2689631697       -4.4763924179       -0.9313050751
 H          0.3257922718       -4.8196506831        2.2492188742
 H          0.4078844863       -3.0778312232        2.5581455560
 H         -1.8959591476       -3.7135895065        2.6432531579
 H         -1.7948249022       -4.6052650811        1.1127779144
 O         -1.9939453174       -1.4348082987        1.7556155268
 C         -2.3479517706       -0.1872780420        1.2670500403
 O         -2.4281164145        0.7011423109        2.1375596040
 H         -0.4671932507        0.8772821036       -1.3400003240
 C         -0.5582259474        1.8184202337       -0.8109698058
 C         -1.8144157016        2.2423459459       -0.3951396031
 C         -1.9095091309        3.4518951599        0.2790278741
 C         -0.7709840870        4.1871720464        0.5667565000
 C          0.4823530269        3.7308516456        0.1995649786
 C          0.5802835358        2.5402454572       -0.5041765184
 N          1.8709299268        2.0142428636       -0.8212337128
 S          2.2950381989        0.9092439213        0.3979694124
 O          1.4835945491       -0.2847465789        0.2936512118
 O          2.2589199822        1.6103031825        1.6561264664
 C          3.9842344323        0.5356305386       -0.0357069655
 C          4.9334960737        1.5250105625        0.1351627292
 C          6.2460725703        1.2616785970       -0.2214561628
 C          6.5851388933        0.0207969239       -0.7409882371
 C          5.6211026449       -0.9616386131       -0.9066158965
 C          4.3054189822       -0.7037906706       -0.5532139055
 H          3.5226546790       -1.4381945389       -0.6596202965
 H          5.8867041323       -1.9259665520       -1.3090297258
 H          7.6076523205       -0.1824829625       -1.0173935221
 H          6.9989263161        2.0226092586       -0.0937289725
 H          4.6225780797        2.4697406096        0.5487925558
 H          1.8352225792        1.4852776718       -1.6853945205
 H          1.3787255327        4.2687178932        0.4605771714
 H         -0.8615627089        5.1174882038        1.1066628200
 H         -2.8736262682        3.8076383756        0.6041809643
 C         -2.9721097418        1.3093108976       -0.6492040445
 H         -3.0762091913        1.1703553394       -1.7355331069
 C         -4.2898076767        1.7916102987       -0.0855478319
 C         -5.1117044923        2.7845688386       -0.8505550851
 C         -5.5636757638        1.3599315859       -0.7459282078
 H         -6.4142540608        1.1309206678       -0.1219399645
 H         -5.4809754657        0.7296469560       -1.6193182601
 H         -4.7259774375        3.1252524516       -1.7993757696
 H         -5.6565542228        3.5358465465       -0.2994892635
 H         -4.2825621021        1.8535969093        0.9966071410
 O         -2.5493056369       -1.0137457523       -2.2521262927
