  62
        -98.94412580
 C          2.0522272547       -1.2884266312        0.1240137159
 C          2.4470258431       -0.2342580482        0.9828535266
 C          3.8509149229        0.1904265458        0.8710834080
 C          4.6653019894       -0.4342126644        0.0016426031
 C          6.0986921366       -0.0675364431       -0.2489012574
 C          6.2191989807        0.9504880125       -1.3915332788
 C          5.2770027882        2.1466940426       -1.2551164635
 H          5.4726432934        2.8126060819       -2.0984059201
 H          4.2446174857        1.8022124287       -1.3518706420
 C          5.4283646499        2.9276833825        0.0577840506
 H          5.4318094780        3.9959234872       -0.1691088581
 H          6.3874029189        2.6921900792        0.5207320019
 C          4.3057481938        2.6918694830        1.0701200853
 H          3.3371671638        2.8359949843        0.5839385128
 H          4.3924805341        3.4478301312        1.8553010190
 C          4.3019210879        1.3191507279        1.7547500654
 H          5.2896297047        1.1129783619        2.1720152040
 H          3.5825604855        1.3615059004        2.5778713770
 H          7.2518436162        1.3015801696       -1.4337829472
 H          5.9937755457        0.4434099192       -2.3325213892
 H          6.5289685311        0.3414037987        0.6631366253
 H          6.6426784457       -0.9731830649       -0.5224148621
 O          4.2541909023       -1.4538010731       -0.7942603822
 C          2.9410285926       -1.8897778811       -0.7703403175
 O          2.6906166307       -2.8093357135       -1.5746400370
 O          1.6790848421        0.3263265949        1.8081939136
 C          0.6185459902       -1.7949265304        0.1088056416
 C         -0.2678069471       -0.7025617896       -0.4369838960
 C         -0.3129593466       -0.4905309831       -1.8120935007
 C         -1.0952657240        0.5154024519       -2.3479323839
 C         -1.8469796153        1.3340011575       -1.5227196486
 C         -1.8006399505        1.1352190925       -0.1499371829
 C         -1.0243772997        0.1163879549        0.3860778426
 H         -0.9896899535       -0.0177902673        1.4553030003
 N         -2.5787768376        1.9562314574        0.6909126028
 S         -4.2236391658        1.9606625106        0.3705245597
 O         -4.4946021146        2.8382543072       -0.7402710556
 O         -4.8643012851        2.3040779954        1.6203383375
 C         -4.5826808724        0.2732721333       -0.0849579734
 C         -4.4853712733       -0.6970905997        0.8927437947
 C         -4.6836123923       -2.0226628971        0.5439578042
 C         -4.9684005785       -2.3541480149       -0.7719752526
 C         -5.0650700084       -1.3682303482       -1.7413309460
 C         -4.8671983237       -0.0402948405       -1.3980551270
 H         -4.9304455954        0.7566314294       -2.1206105532
 H         -5.2877414211       -1.6295472035       -2.7632843947
 H         -5.1160567643       -3.3879020143       -1.0422866072
 H         -4.6094738149       -2.7920915248        1.2956521419
 H         -4.2681994075       -0.4027855496        1.9070103738
 H         -2.4068496877        1.7947059516        1.6729046439
 H         -2.4658310656        2.1231094705       -1.9185687490
 H         -1.1211568459        0.6649064142       -3.4166294374
 H          0.2815251117       -1.1251153358       -2.4550306899
 H          0.6041623871       -2.6290168623       -0.6051225493
 C          0.1834529392       -2.3074920830        1.4662582130
 C         -1.0873742332       -3.0945908597        1.5753474066
 C          0.2354800954       -3.7778038209        1.7458285968
 H          0.5256001680       -4.1035081718        2.7336373941
 H          0.5846859477       -4.4246880278        0.9543962986
 H         -1.7070426809       -2.9539804458        2.4477744250
 H         -1.6396427960       -3.2732414425        0.6651863808
 H          0.4400532921       -1.6402175268        2.2796731951
