  62
        -98.94372858
 C         -1.2800559497       -1.4199215797        0.5832343197
 C         -2.0942003597       -1.0384193497       -0.5118702304
 C         -3.1727566196       -0.0854127795       -0.2083444005
 C         -3.3122518795        0.3848257607        1.0434063795
 C         -4.3312699493        1.3992847409        1.4727345293
 C         -3.7707518892        2.8250721808        1.3776653191
 C         -3.0962262691        3.1423164905        0.0423422891
 H         -2.7824762290        4.1883169005        0.0799375289
 H         -2.1825502992        2.5487831004       -0.0515261708
 C         -3.9853611792        2.9201300705       -1.1893737109
 H         -3.8609349391        3.7697525204       -1.8641532310
 H         -5.0337114392        2.8951564406       -0.8886088009
 C         -3.6576168994        1.6615095203       -1.9949744707
 H         -2.5844323094        1.6318180101       -2.2031017907
 H         -4.1764348694        1.7281895403       -2.9551660707
 C         -4.0601856395        0.3307967905       -1.3469201705
 H         -5.1040629195        0.3753893206       -1.0298444205
 H         -3.9623243496       -0.4505829597       -2.1062674504
 H         -4.5876796791        3.5287337809        1.5498185591
 H         -3.0305584691        2.9618617108        2.1697204891
 H         -5.2173163194        1.3036201509        0.8481236394
 H         -4.6043283894        1.1956269510        2.5097638194
 O         -2.4959190595        0.0179246107        2.0640516695
 C         -1.4415330396       -0.8551372295        1.8501416696
 O         -0.7252983596       -1.0465846494        2.8543243296
 H          0.6135981205        0.1601984900       -0.0680106806
 C          1.0312921004       -0.4939375801       -0.8179251205
 C          0.7426118702       -1.8513458101       -0.7708609503
 C          1.2501928901       -2.6694423903       -1.7708485202
 C          2.0181054401       -2.1291749705       -2.7889474403
 C          2.3132383503       -0.7784342806       -2.8234074805
 C          1.8066639004        0.0488464796       -1.8271205106
 N          2.0678824206        1.4272699496       -1.8138716608
 S          2.2059438507        2.2207798398       -0.3502675709
 O          0.9066732308        2.4257377900        0.2400951391
 O          2.9489904809        3.4225847496       -0.6655760510
 C          3.2076342206        1.1440428598        0.6612632593
 C          4.5149665106        0.9373805595        0.2638267393
 C          5.3129488905        0.0746926495        0.9962099494
 C          4.7916140604       -0.5696344403        2.1082434795
 C          3.4808217804       -0.3468676200        2.4989131095
 C          2.6784682405        0.5184102900        1.7710925094
 H          1.6529614706        0.7023530802        2.0533886393
 H          3.0667586804       -0.8449225999        3.3614096495
 H          5.4091816603       -1.2474081403        2.6760833396
 H          6.3345104805       -0.0960285506        0.6974448894
 H          4.8877271006        1.4637242094       -0.5997397508
 H          2.7400183007        1.7484530694       -2.4942393808
 H          2.9134048604       -0.3629420408       -3.6181149105
 H          2.3975050300       -2.7732070007       -3.5676635702
 H          1.0277418199       -3.7237057103       -1.7688066900
 C         -0.0814097098       -2.3348548798        0.3985727598
 H          0.5274592602       -2.1803598198        1.3059779098
 C         -0.4070017100       -3.8201375298        0.3502084800
 C         -1.6889866601       -4.3519797496        0.9167223201
 C         -1.4524504801       -4.3851661998       -0.5618933199
 H         -1.2625946603       -5.3416843299       -1.0268259798
 H         -1.9927499800       -3.6921675398       -1.1862827600
 H         -2.3996696200       -3.6360873094        1.3046436300
 H         -1.6599544002       -5.2804944495        1.4672533002
 H          0.4743965799       -4.4320078999        0.5155660601
 O         -1.9382328298       -1.4607595099       -1.6864306503
