  62
        -98.94314437
 C         -2.5214483752       -1.1750673500       -0.0548759002
 C         -3.5291871937       -0.6627520381        0.8036118687
 C         -4.4234030153        0.3439229396        0.2240108148
 C         -4.2699102746        0.7093950590       -1.0614252198
 C         -5.1076673519        1.7150759254       -1.8031684907
 C         -4.6650799766        3.1695618557       -1.5914662524
 C         -4.9806719818        3.7520257861       -0.2131135753
 H         -4.8181293604        4.8297919118       -0.2766121004
 H         -6.0357193851        3.5950800867        0.0133366563
 C         -4.1183088458        3.1899807501        0.9258887222
 H         -3.2360426278        2.6991022457        0.5081726498
 H         -3.7601992696        4.0111238088        1.5508613073
 C         -4.8434068308        2.2057723424        1.8439227719
 H         -5.6477891125        2.7218210930        2.3727160300
 H         -4.1295750600        1.8424087820        2.5875062406
 C         -5.4356615157        0.9881992426        1.1221608726
 H         -5.7296249516        0.2523395241        1.8745349161
 H         -6.3185437394        1.2795529385        0.5537607064
 H         -5.1730869370        3.7771129584       -2.3439920018
 H         -3.5909356117        3.2381153739       -1.7786071278
 H         -6.1534714806        1.6055316601       -1.5150073019
 H         -5.0123188066        1.4771056521       -2.8647823878
 O         -3.3120138497        0.1733756218       -1.8614926871
 C         -2.3995344236       -0.7551607402       -1.3794176024
 O         -1.5641403574       -1.1179793486       -2.2310650258
 O         -3.6745287161       -1.0333711419        1.9984221934
 C         -1.5457311783       -2.1776389251        0.5403358730
 C         -0.2318906230       -1.4807042062        0.8008158236
 C          0.0227131227       -0.9314130271        2.0537981713
 C          1.2027964654       -0.2541368206        2.3002014505
 C          2.1480946720       -0.0998888292        1.3013765151
 C          1.9016994222       -0.6393306532        0.0458155031
 C          0.7234719833       -1.3349878068       -0.1941283156
 H          0.5317210164       -1.7326588982       -1.1787429340
 N          2.8312427722       -0.4525249365       -0.9880043092
 S          4.4653738273       -0.6566923590       -0.6921812197
 O          5.0528295279       -0.9331438207       -1.9847921133
 O          4.7011929494       -1.6378363174        0.3417473679
 C          5.0040585603        0.9496968753       -0.1430246989
 C          5.7209946621        1.0727658351        1.0310110520
 C          6.1385984131        2.3321093521        1.4328944523
 C          5.8347160993        3.4400662577        0.6569805071
 C          5.1165177218        3.2992677713       -0.5212342139
 C          4.6971082702        2.0430884450       -0.9289519349
 H          4.1381634953        1.8922630478       -1.8376342428
 H          4.8815674870        4.1630471898       -1.1222373401
 H          6.1591268868        4.4193444581        0.9718110488
 H          6.6971197032        2.4437189193        2.3483185774
 H          5.9286503386        0.1840928625        1.6055807641
 H          2.5519769994       -0.8570960549       -1.8692992963
 H          3.0678848445        0.4305926272        1.4855818092
 H          1.3878201177        0.1637518756        3.2780646399
 H         -0.7223495129       -1.0322912321        2.8301635254
 H         -1.9767320339       -2.4527646445        1.5123365913
 C         -1.4004998328       -3.4339232780       -0.2930085970
 C         -0.7579759848       -4.6408521657        0.3203768931
 C         -2.2305443264       -4.6350466317        0.0427368338
 H         -2.6063103356       -5.2434048303       -0.7662686760
 H         -2.9073961862       -4.5574951743        0.8809521843
 H         -0.1188534737       -5.2547270682       -0.2958566605
 H         -0.4343473562       -4.5645609386        1.3475277922
 H         -1.2157688299       -3.2427079569       -1.3422830478
