  62
        -98.94273383
 C         -0.7532745321       -1.9553773859        0.2196585239
 C         -1.3962837601       -1.1302474144        1.1716228458
 C         -2.6627624229       -0.5203552713        0.7497220195
 C         -3.1481449150       -0.7815958748       -0.4770027055
 C         -4.4229786804       -0.2409762503       -1.0663500895
 C         -4.4367566172        1.2801286598       -1.3173925621
 C         -5.0793555120        2.0967619081       -0.1889746286
 H         -5.6848597344        2.8905230359       -0.6312867763
 H         -5.7630974894        1.4527983217        0.3660293468
 C         -4.1059411794        2.7677827668        0.7848576031
 H         -3.6904786705        3.6618357047        0.3136975721
 H         -4.6764324596        3.0890371277        1.6595730455
 C         -2.9248806720        1.9134512476        1.2475706374
 H         -2.1818907818        1.8597691948        0.4465507036
 H         -2.4416728120        2.4297520549        2.0807186871
 C         -3.2939374360        0.4785003596        1.6755924858
 H         -2.8973766540        0.2758088881        2.6728828975
 H         -4.3750400709        0.3508520087        1.7017675561
 H         -5.0088966994        1.4488354530       -2.2313147071
 H         -3.4188280227        1.6246958794       -1.5059508736
 H         -4.5518030087       -0.7624471783       -2.0169145354
 H         -5.2590868287       -0.5125508364       -0.4180279542
 O         -2.5224558590       -1.6184461822       -1.3483441791
 C         -1.2914884191       -2.1831853068       -1.0466977702
 O         -0.7988186075       -2.8608590813       -1.9690869900
 H          0.5395905846       -0.0469645450       -0.5315922954
 C          1.4482821223       -0.5584201240       -0.8044768532
 C          1.6573102390       -1.8597034564       -0.3711243478
 C          2.8235479365       -2.5048292372       -0.7656563668
 C          3.7364527081       -1.8600248182       -1.5826484289
 C          3.5199689194       -0.5630912427       -2.0130295695
 C          2.3577276827        0.0918101694       -1.6218789954
 N          2.0759638520        1.3971304049       -2.0456304657
 S          1.1679546682        2.4305378529       -1.0993188635
 O         -0.2188921625        2.0357787873       -1.0968744236
 O          1.4461459212        3.7407259668       -1.6488508899
 C          1.8838165075        2.3032913017        0.5290121544
 C          3.1703802987        2.7830109828        0.6887351407
 C          3.7864175899        2.6597026245        1.9224811907
 C          3.1115508070        2.0544619859        2.9726590003
 C          1.8195563233        1.5852545411        2.7989929606
 C          1.1963233385        1.7109165725        1.5670279284
 H          0.1937471406        1.3447532083        1.4130681705
 H          1.2852599858        1.1073305881        3.6047219929
 H          3.5933748735        1.9493200213        3.9319241671
 H          4.7894261832        3.0297401169        2.0612621878
 H          3.6581324838        3.2554034851       -0.1484384945
 H          2.8201808750        1.8702471361       -2.5348014612
 H          4.2317398719       -0.0669068529       -2.6544143492
 H          4.6340228401       -2.3756348225       -1.8885186713
 H          3.0120173318       -3.5152625984       -0.4414378374
 C          0.6279568241       -2.4946506477        0.5359997633
 H          0.8402584981       -2.1643385188        1.5649600920
 C          0.6538024903       -4.0085982965        0.4981906815
 C          1.5384711432       -4.7766115702        1.4333618140
 C          0.0551676239       -4.7685149335        1.6429662840
 H         -0.5052060904       -5.6660880344        1.4289520046
 H         -0.3434141263       -4.1913721418        2.4646202855
 H          1.9980178217       -5.6861540138        1.0768113008
 H          2.1473401222       -4.2131457207        2.1241757538
 H          0.4958614045       -4.4012136854       -0.4997573403
 O         -0.9237062216       -0.9002322099        2.3181323808
