  62
        -98.94007115
 C         -2.5866532548       -1.1644868010        0.2997458496
 C         -2.5977681264       -0.3445661748       -0.8560283419
 C         -3.5200211859        0.8023626064       -0.8182823370
 C         -4.2638813178        1.0214328216        0.2802719178
 C         -5.2009235024        2.1785542648        0.4682780317
 C         -4.4890679790        3.3694184034        1.1254338167
 C         -3.1591214423        3.7351505890        0.4659479178
 H         -2.7632564116        4.6055300289        0.9939734820
 H         -2.4490014630        2.9184237933        0.6171998300
 C         -3.2584137742        4.0473740697       -1.0338260736
 H         -4.2939550808        4.2640459738       -1.2985429906
 H         -2.6753558054        4.9466808266       -1.2427504211
 C         -2.7212148699        2.9451006391       -1.9487556251
 H         -1.7167112363        2.6572610201       -1.6276371565
 H         -2.6367071316        3.3538301429       -2.9590675128
 C         -3.5787930563        1.6766050558       -2.0393436928
 H         -4.6112501680        1.9453802502       -2.2715343893
 H         -3.1866147089        1.0703967409       -2.8610732918
 H         -5.1595099888        4.2302692998        1.0980998501
 H         -4.2957289934        3.1228558285        2.1722173237
 H         -5.6056750161        2.4718710147       -0.4983453987
 H         -6.0203233563        1.8560993660        1.1129946168
 O         -4.2039544987        0.2299676882        1.3825699545
 C         -3.3554282600       -0.8644224441        1.4265855407
 O         -3.3690483073       -1.4777793472        2.5134149687
 O         -1.8831421192       -0.5466068519       -1.8701343810
 C         -1.6721739889       -2.3726403920        0.4071433514
 C         -0.2849103824       -2.0152900071       -0.0699509800
 C          0.3959944304       -2.7068025357       -1.0621539293
 C          1.6754276757       -2.3259265045       -1.4287136380
 C          2.3010532045       -1.2538248199       -0.8206798281
 C          1.6303597894       -0.5556493907        0.1752912608
 C          0.3542056511       -0.9460229648        0.5474175855
 H         -0.1675963436       -0.4027577090        1.3277506181
 N          2.2555610568        0.5462920714        0.7902406690
 S          3.7603625944        0.2875741356        1.4930050495
 O          3.9033977716       -1.0780161291        1.9432873635
 O          3.8867016539        1.3142212920        2.5048613201
 C          4.9142453561        0.6221905389        0.1796553955
 C          5.8249293297       -0.3442569706       -0.1998855829
 C          6.7202981467       -0.0571844784       -1.2186215666
 C          6.6895030339        1.1843554251       -1.8350895315
 C          5.7698379271        2.1447728717       -1.4402770103
 C          4.8727959594        1.8647402290       -0.4219448800
 H          4.1453215704        2.5832802881       -0.0827449092
 H          5.7488556184        3.1090464178       -1.9220594736
 H          7.3866327462        1.4053845685       -2.6278573696
 H          7.4360200607       -0.8021914123       -1.5270657425
 H          5.8074742389       -1.2969922120        0.3048276546
 H          1.6549389476        1.0419362266        1.4332821671
 H          3.2935165711       -0.9496097403       -1.1107362948
 H          2.1902702573       -2.8691352767       -2.2064249054
 H         -0.0816511600       -3.5315820362       -1.5644916450
 H         -1.6039425352       -2.5799417368        1.4888454370
 C         -2.2273709627       -3.6349430818       -0.2360862992
 C         -3.7047649303       -3.8422006308       -0.3826101057
 C         -2.8533470864       -3.6340218750       -1.5970807383
 H         -2.6719898496       -4.4798903581       -2.2440240813
 H         -2.9151749694       -2.6912596923       -2.1163478033
 H         -4.1041876244       -4.8272920927       -0.1931206544
 H         -4.3571148902       -3.0401704304       -0.0682478310
 H         -1.6478516255       -4.5124479816        0.0343790425
