  62
        -98.94736991
 C         -1.0476070921       -1.5089970983        0.3777396354
 C         -1.0611285305       -0.3817151273       -0.4788863030
 C         -1.9597620475        0.7101879789       -0.0781027664
 C         -2.6047432082        0.6349515506        1.0998792257
 C         -3.5644218680        1.6650291793        1.6207636680
 C         -5.0081889432        1.3368305175        1.2151941477
 C         -5.1722602034        1.0168217452       -0.2705909318
 H         -4.6426603252        0.0878595439       -0.4939373676
 H         -6.2341115403        0.8326109913       -0.4476235625
 C         -4.6790652968        2.1214687854       -1.2153974251
 H         -4.5952866223        3.0627348983       -0.6712022809
 H         -5.4230891141        2.2660807916       -2.0014816026
 C         -3.3503535138        1.8162710253       -1.9096693865
 H         -3.2108244385        2.5471781020       -2.7101251169
 H         -3.3993691891        0.8278288671       -2.3727502194
 C         -2.1004423631        1.8707296426       -1.0213145690
 H         -1.2241452714        1.8273978637       -1.6739516330
 H         -2.0767746660        2.8155274174       -0.4747565319
 H         -5.3403429750        0.4703180834        1.7917759679
 H         -5.6425857527        2.1845463214        1.4806181335
 H         -3.4940673549        1.6778093093        2.7100625510
 H         -3.2803542877        2.6437970835        1.2390661440
 O         -2.4901494737       -0.4236634837        1.9429544543
 C         -1.7368893176       -1.5306245849        1.5889398302
 O         -1.7567001893       -2.4573261861        2.4270088975
 O         -0.3663517009       -0.2928213239       -1.5245187155
 C         -0.2292038044       -2.7317348684        0.0145463656
 C          1.2384646051       -2.4062273195       -0.1263400855
 C          2.0872554981       -3.1647548007       -0.9258176036
 C          3.4357803574       -2.8651282930       -1.0004939970
 C          3.9633797460       -1.7950227209       -0.3007038841
 C          3.1209097516       -1.0269989502        0.4955677262
 C          1.7765085314       -1.3479728976        0.5912829271
 H          1.1417175419       -0.7512895536        1.2288321254
 N          3.6155009921        0.0749875382        1.2131970084
 S          2.7258812906        1.4710752387        1.3845194082
 O          3.6855445409        2.4363139845        1.8836256887
 O          1.5777869304        1.2498383225        2.2302883478
 C          2.1973606045        2.0136651955       -0.2337437378
 C          2.7866787430        1.5486578069       -1.3908496570
 C          2.3847565354        2.0793774877       -2.6068452289
 C          1.4231157572        3.0746211570       -2.6469356017
 C          0.8462617788        3.5382133818       -1.4750988535
 C          1.2322512364        3.0001527271       -0.2586907536
 H          0.7980910237        3.3189166308        0.6760313242
 H          0.0958738852        4.3120961100       -1.5051766345
 H          1.1158020965        3.4872664576       -3.5949398906
 H          2.8264251756        1.7110795502       -3.5187340436
 H          3.5341033891        0.7739721637       -1.3516218256
 H          4.5934953564        0.2807645955        1.0692446087
 H          5.0139087148       -1.5547450680       -0.3654766756
 H          4.0838895369       -3.4665966019       -1.6192627649
 H          1.6898931329       -3.9942748981       -1.4876141658
 H         -0.3377347764       -3.4297238793        0.8590532919
 C         -0.8002821800       -3.3823798637       -1.2322933640
 C         -0.8269764303       -4.8736824325       -1.3754022243
 C         -2.0993788998       -4.1220104646       -1.1291190807
 H         -2.8130025439       -4.0297632627       -1.9339863679
 H         -2.5522060344       -4.1884544500       -0.1499445183
 H         -0.6688375028       -5.3006867479       -2.3543695228
 H         -0.4285344450       -5.4638872855       -0.5637320393
 H         -0.6352251204       -2.7847414806       -2.1213369856
