  62
        -98.94578458
 C         -2.1971616863       -1.1636890866        0.1982121239
 C         -1.8656623001       -0.2443772323       -0.8270067385
 C         -2.6299312996        1.0131922617       -0.8280246913
 C         -3.5704759607        1.2160481097        0.1126702505
 C         -4.3955925810        2.4628357553        0.2468765598
 C         -3.7242427651        3.4809986597        1.1789564072
 C         -2.2534379231        3.7394042225        0.8518280327
 H         -1.8901890247        4.4943620518        1.5527421501
 H         -1.6811886773        2.8276646427        1.0407358222
 C         -1.9971869617        4.2100238688       -0.5867912075
 H         -2.9245201685        4.5801611131       -1.0253476178
 H         -1.2942949569        5.0454501862       -0.5607954481
 C         -1.3897816410        3.1455838457       -1.5021809352
 H         -0.5093509095        2.7149406465       -1.0191951826
 H         -1.0512037422        3.6398155007       -2.4165639756
 C         -2.3277218427        2.0046805872       -1.9170299717
 H         -3.2515567061        2.4207234254       -2.3240308986
 H         -1.8316296928        1.4345240053       -2.7079430548
 H         -3.7875408407        3.1081119279        2.2040790292
 H         -4.2802441723        4.4186365062        1.1248805766
 H         -5.3662297771        2.1882654059        0.6634194803
 H         -4.5451438631        2.9007135649       -0.7381413338
 O         -3.8496403846        0.3144653853        1.0889800270
 C         -3.1710238343       -0.8926857474        1.1582334065
 O         -3.5163408537       -1.6236122805        2.1095304822
 O         -0.9833863357       -0.4588356438       -1.6959092335
 C         -1.4917961853       -2.5054656870        0.2681348971
 C          0.0048749208       -2.3339097991        0.3683225950
 C          0.9040152417       -3.1747458520       -0.2760920613
 C          2.2684427850       -2.9866550811       -0.1363252907
 C          2.7673505192       -1.9553531732        0.6372604342
 C          1.8766812992       -1.1046012354        1.2800357164
 C          0.5108124144       -1.3061180844        1.1534908530
 H         -0.1777813158       -0.6436188039        1.6645899982
 N          2.3725173079       -0.0316967921        2.0393993939
 S          3.6281685559        0.8647569570        1.3871922566
 O          4.8852594508        0.2457752559        1.7298638499
 O          3.4360840071        2.2066557175        1.8935149575
 C          3.4083017030        0.8217487835       -0.3834491598
 C          2.1645587656        1.1121023830       -0.9066004886
 C          1.9806004284        1.0551855139       -2.2776719004
 C          3.0453300556        0.7229803001       -3.1010065116
 C          4.2929167231        0.4473895434       -2.5631376550
 C          4.4778090689        0.4905126955       -1.1905869966
 H          5.4252566881        0.2659258861       -0.7279749526
 H          5.1185217708        0.1902437929       -3.2070826183
 H          2.8970640310        0.6750506592       -4.1681944407
 H          1.0009184113        1.2422610523       -2.6864438131
 H          1.3480025314        1.3609052600       -0.2468365413
 H          1.6566156327        0.5683543970        2.4213646891
 H          3.8267351542       -1.7942057655        0.7564857922
 H          2.9535461322       -3.6500309493       -0.6411645978
 H          0.5354262717       -3.9792669251       -0.8905900044
 H         -1.8396955378       -2.9830233816        1.1965199943
 C         -1.9149222455       -3.3645570979       -0.9073118871
 C         -2.0312778136       -4.8512090896       -0.7612040735
 C         -3.2663218231       -4.0105746958       -0.8755429280
 H         -3.8404850924       -4.0538059243       -1.7888824571
 H         -3.8670371284       -3.8565722590        0.0095504746
 H         -1.7604937535       -5.4751280559       -1.5996915365
 H         -1.8006371422       -5.2804517788        0.2022113665
 H         -1.5729985664       -2.9663729586       -1.8556391639
