  62
        -98.93295705
 C         -2.6569186498       -1.3160500708        0.3679576037
 C         -2.8814194662       -0.4825386103       -0.7537545331
 C         -3.8275825787        0.6330433731       -0.5591073873
 C         -4.4255701492        0.8026699353        0.6314115846
 C         -5.4363349736        1.8462920550        1.0357562674
 C         -5.1777321731        3.2930913835        0.5911166886
 C         -3.6975089894        3.6892574819        0.4899611082
 H         -3.5423741820        4.6214124843        1.0363036198
 H         -3.0722778367        2.9283526695        0.9605248375
 C         -3.2352829223        3.9097830534       -0.9526209904
 H         -2.3330855555        4.5261678078       -0.9422063874
 H         -4.0066368058        4.4692311492       -1.4863393382
 C         -2.9059091975        2.6406392672       -1.7374963080
 H         -2.7015067111        2.9272285644       -2.7721066231
 H         -1.9903303402        2.1908613768       -1.3433246104
 C         -3.9964964387        1.5566306188       -1.7313799193
 H         -4.9901275380        1.9969344724       -1.7570839892
 H         -3.8641909386        0.9410765352       -2.6253587288
 H         -5.6779447564        3.9388441523        1.3147217715
 H         -5.6576963572        3.4702049906       -0.3704551093
 H         -6.4172790541        1.5299113593        0.6696442551
 H         -5.4696374291        1.7990070027        2.1267663059
 O         -4.1930269441       -0.0337676476        1.6818786078
 C         -3.3098380361       -1.0920867449        1.5833030264
 O         -3.1961111608       -1.7603821686        2.6300102334
 H         -0.2880267543       -0.6132626654       -0.9650416806
 C          0.2861694172       -1.0501666825       -0.1610382899
 C         -0.2880510521       -2.0459321053        0.6175421937
 C          0.4678012105       -2.6105093044        1.6377476235
 C          1.7629259287       -2.1819866828        1.8724105061
 C          2.3288274956       -1.1844422102        1.0987573688
 C          1.5840297892       -0.6176662866        0.0723723883
 N          2.1356075663        0.4075015545       -0.7124682477
 S          3.7002647765        0.2410044299       -1.2923426633
 O          3.7613801217        1.0833067151       -2.4662351498
 O          4.0523856899       -1.1475972353       -1.4783039654
 C          4.7025484473        0.9629085305       -0.0099551667
 C          4.4026266683        2.2470125302        0.4007501719
 C          5.1755373545        2.8305164240        1.3916738559
 C          6.2315294903        2.1253353363        1.9497951183
 C          6.5225473720        0.8386017398        1.5236202047
 C          5.7522693471        0.2487244834        0.5332781710
 H          5.9386480049       -0.7510448475        0.1743516407
 H          7.3444953791        0.2927465765        1.9581564994
 H          6.8311571634        2.5818648618        2.7213480439
 H          4.9521851557        3.8311241626        1.7253487205
 H          3.5760944886        2.7617353921       -0.0603723317
 H          1.5139177358        0.7412588284       -1.4347733580
 H          3.3367968801       -0.8479467005        1.2778382890
 H          2.3382859882       -2.6274763838        2.6694985322
 H          0.0293311875       -3.3810089019        2.2550034259
 C         -1.7013306278       -2.4990240030        0.3526235159
 H         -2.0124547916       -3.1261881124        1.2024435923
 C         -1.8328928458       -3.3473915926       -0.9067049882
 C         -0.7475011429       -3.5092749073       -1.9247242693
 C         -1.0887268298       -4.6457729205       -1.0114691255
 H         -1.5987554991       -5.5061175919       -1.4174216518
 H         -0.3862473136       -4.8776988882       -0.2249186609
 H          0.1894181893       -2.9962344684       -1.7708892408
 H         -1.0417212857       -3.5671022504       -2.9618599921
 H         -2.8472441887       -3.3403193035       -1.2925264299
 O         -2.3327108464       -0.6397321486       -1.8759841234
