  62
        -98.94643680
 C         -1.5559840291       -1.0975651135        0.0321503525
 C         -2.6107298737       -0.8178995405        0.9380866627
 C         -3.3297584913        0.4444883002        0.7248978201
 C         -2.9318046378        1.2680300624       -0.2616812172
 C         -3.5940244357        2.5680907819       -0.6127381809
 C         -4.6819114187        2.3671114038       -1.6771355870
 C         -5.6542079474        1.2308199262       -1.3603855982
 H         -6.3939671658        1.2027223801       -2.1634318193
 H         -5.1149506805        0.2811446765       -1.3879308686
 C         -6.3712772805        1.3662442901       -0.0098341195
 H         -6.3061249356        2.3961608360        0.3429473943
 H         -7.4300458638        1.1392471371       -0.1516396542
 C         -5.8559182514        0.4236785400        1.0795067988
 H         -5.8332320120       -0.5999790399        0.6970418828
 H         -6.5653406989        0.4457139143        1.9110286601
 C         -4.4717089200        0.7570884942        1.6502666577
 H         -4.4439912989        1.8041147580        1.9584365480
 H         -4.3186605606        0.1341884333        2.5363382181
 H         -5.2351934350        3.3016541213       -1.7862046345
 H         -4.1974702059        2.1462847827       -2.6311661090
 H         -4.0268679126        3.0035733121        0.2856321673
 H         -2.8370911058        3.2482649898       -1.0068701472
 O         -1.8967996782        0.9818005649       -1.0902303427
 C         -1.1938084675       -0.2105453394       -0.9814127643
 O         -0.2950646390       -0.3425570180       -1.8336821874
 H          1.5150944443       -2.0421266527       -1.2512788680
 C          1.6591241795       -1.8128527415       -0.2077898022
 C          0.6153872504       -1.9796144838        0.6886066594
 C          0.8269537601       -1.6545097775        2.0259542405
 C          2.0514317943       -1.1752677643        2.4523534275
 C          3.0829710570       -0.9823122801        1.5493325553
 C          2.8751437640       -1.2915007124        0.2121037994
 N          3.8943626436       -1.0353274803       -0.7238860492
 S          4.6191369763        0.4715146261       -0.6301444109
 O          5.0083805174        0.7983380823       -1.9846320767
 O          5.6974779166        0.4201010311        0.3275643382
 C          3.3663730873        1.6040217785       -0.0449693928
 C          3.6501933232        2.4145344170        1.0361469578
 C          2.6818528056        3.2949102592        1.4904873396
 C          1.4473843210        3.3472209528        0.8617119173
 C          1.1792739767        2.5290101114       -0.2242799746
 C          2.1450642485        1.6498599443       -0.6870949067
 H          1.9332351530        1.0001463608       -1.5216984748
 H          0.2181693701        2.5531510646       -0.7139188626
 H          0.6887839193        4.0261033311        1.2186060332
 H          2.8896557599        3.9325976545        2.3345878152
 H          4.6191643468        2.3337992292        1.5016587649
 H          3.6183595496       -1.2345700444       -1.6749945516
 H          4.0388100300       -0.5896370185        1.8569232651
 H          2.2024123087       -0.9353506054        3.4936590159
 H          0.0102584690       -1.7676653961        2.7249409477
 C         -0.7649988855       -2.3809081644        0.2335013570
 H         -1.2637126491       -2.9058921262        1.0587016915
 C         -0.7814429685       -3.2693020303       -0.9919151913
 C         -0.3353107957       -4.6947379059       -0.8684577405
 C         -1.7847373187       -4.3785041276       -1.0790117636
 H         -2.2271606272       -4.5982081782       -2.0392159926
 H         -2.4621551789       -4.5068819761       -0.2475522898
 H         -0.0272170691       -5.0360315756        0.1082142537
 H          0.2192174351       -5.1355531072       -1.6827869422
 H         -0.5503267659       -2.7438754558       -1.9105010812
 O         -2.9338783349       -1.5892263187        1.8796922098
