  62
        -98.94264743
 C         -0.6562214639       -1.4626342207        0.0408734684
 C         -1.5722237228       -1.1285925200        1.0613239568
 C         -2.5066837757       -0.0209013619        0.7829566372
 C         -2.4335888485        0.6017400558       -0.4085673088
 C         -3.3375675967        1.6763956652       -0.9515519503
 C         -4.7132229730        1.1368447129       -1.3795489454
 C         -5.3565453741        0.1496558005       -0.4095805073
 H         -4.6833678732       -0.6960424319       -0.2579311939
 H         -6.2627017539       -0.2379955615       -0.8825044082
 C         -5.7503766578        0.7327277084        0.9451305972
 H         -6.2684432220       -0.0534726857        1.5002850235
 H         -6.4568094790        1.5517835092        0.7926504680
 C         -4.5956629226        1.2418608807        1.8100025541
 H         -4.9869943693        1.3990031700        2.8195849056
 H         -4.2418242363        2.2091781684        1.4635994001
 C         -3.4264174156        0.2711042789        1.9440045808
 H         -3.8036013437       -0.7002377474        2.2842142025
 H         -2.7711583544        0.6238243618        2.7512686595
 H         -4.5898941802        0.6256024824       -2.3370983144
 H         -5.3821424612        1.9852143844       -1.5333090637
 H         -2.8412349682        2.0824606587       -1.8345182586
 H         -3.4429542962        2.4783420737       -0.2266636493
 O         -1.5028294424        0.2710858302       -1.3486680430
 C         -0.5847968135       -0.7426525445       -1.1507811607
 O          0.2184749770       -0.9062945219       -2.0874765647
 O         -1.6253478528       -1.7422303485        2.1637520679
 C          0.3078826693       -2.6124726299        0.2563268687
 C          1.7372502259       -2.1449248654        0.1440676535
 C          2.7362776557       -2.9025793901       -0.4550679778
 C          4.0344045530       -2.4269195977       -0.5176251041
 C          4.3620676798       -1.1889487425        0.0032806237
 C          3.3699936057       -0.4262990930        0.6108667447
 C          2.0751621045       -0.9121532997        0.6873081770
 H          1.3168432467       -0.3158154228        1.1737915664
 N          3.6683260657        0.8328982612        1.1517221550
 S          2.5319593853        2.0410984224        1.2520394564
 O          3.3151056594        3.2374866732        1.4872438213
 O          1.5540901922        1.7365677670        2.2687944475
 C          1.7254075627        2.2039596489       -0.3326423507
 C          0.5281610308        2.8915289251       -0.3410883146
 C         -0.0960219851        3.1450380769       -1.5504716629
 C          0.4748382692        2.6903434466       -2.7283444982
 C          1.6707390012        1.9929837563       -2.7035702570
 C          2.3128723047        1.7576823309       -1.4981318767
 H          3.2446264249        1.2171996224       -1.4686579599
 H          2.1065131316        1.6256240403       -3.6183676816
 H         -0.0185580766        2.8741918713       -3.6697164655
 H         -1.0240292295        3.6937943591       -1.5674679109
 H          0.1077106838        3.2079279053        0.6008648289
 H          4.5903077448        1.1907137991        0.9514416026
 H          5.3719713029       -0.8128135904       -0.0550204411
 H          4.8004367243       -3.0248890829       -0.9871377739
 H          2.4978286542       -3.8654745167       -0.8756961457
 H          0.1394565436       -2.9467406430        1.2917794624
 C         -0.0250531136       -3.7529208248       -0.6850656299
 C          0.1972412541       -5.1754883723       -0.2687781037
 C         -1.1957101262       -4.6325441873       -0.3671067076
 H         -1.8267131904       -4.9660538174       -1.1771826940
 H         -1.7323249118       -4.4282521584        0.5481798150
 H          0.5208804333       -5.8867555082       -1.0137802736
 H          0.6015265894       -5.3515868032        0.7166427470
 H          0.1353080478       -3.4902829178       -1.7248072007
