  62
        -98.93900603
 C         -1.4266172889        1.3615284386       -0.0347340859
 C         -1.5992281494        0.0308177502        0.4180943775
 C         -2.7641619091       -0.6964197175       -0.1202430695
 C         -3.5904761076       -0.0899885483       -0.9873306876
 C         -4.8079338502       -0.6539551096       -1.6759735709
 C         -5.7735336651       -1.4962256730       -0.8290062352
 C         -5.8630849290       -1.0975508979        0.6515251061
 H         -5.3751362686       -0.1345043311        0.8102572328
 H         -6.9139031176       -0.9795000148        0.9224569439
 C         -5.2517596575       -2.1411951929        1.5900793072
 H         -5.6652552712       -1.9978060412        2.5912502400
 H         -5.5535253731       -3.1347456809        1.2512717486
 C         -3.7292491517       -2.0989922522        1.7190070561
 H         -3.4160160065       -2.9668151225        2.3044320707
 H         -3.4289410068       -1.2089758809        2.2781080233
 C         -2.9560928942       -2.0953041586        0.3905309506
 H         -1.9531328862       -2.4915637049        0.5747151165
 H         -3.4398228636       -2.7278203808       -0.3503051003
 H         -6.7584395373       -1.4050926423       -1.2901913444
 H         -5.4928225358       -2.5466423716       -0.8958456311
 H         -5.3346369057        0.2157279406       -2.0763502972
 H         -4.4701411214       -1.2474338536       -2.5307879781
 O         -3.3922305687        1.1953205917       -1.3958410356
 C         -2.3179108655        1.9384066002       -0.9429369855
 O         -2.2688011062        3.0964669384       -1.4067732802
 H          0.7281294409       -0.0505707000       -0.6768507505
 C          1.3238527339        0.8119938672       -0.9253455732
 C          0.9422731372        2.0718911191       -0.4904730348
 C          1.7181871001        3.1670766916       -0.8549749567
 C          2.8466648187        3.0015796056       -1.6364992774
 C          3.2300103062        1.7417706033       -2.0597131758
 C          2.4594022229        0.6399971143       -1.7054739875
 N          2.8105657747       -0.6434658059       -2.1434617069
 S          2.5567478104       -1.9860972538       -1.1774165738
 O          3.4275148500       -2.9915529746       -1.7520054784
 O          1.1564730085       -2.3195998269       -1.1397696217
 C          3.1772596609       -1.5164458721        0.4268895359
 C          4.5489838906       -1.4046033195        0.5573884684
 C          5.0790424393       -1.0028918475        1.7714763194
 C          4.2309820204       -0.7170261592        2.8312507550
 C          2.8588725845       -0.8390435636        2.6844594800
 C          2.3196819976       -1.2419767526        1.4712566319
 H          1.2535756134       -1.3329840172        1.3318034001
 H          2.1957027245       -0.6200925124        3.5065776130
 H          4.6411675782       -0.4002962672        3.7772742437
 H          6.1469196015       -0.9121145148        1.8883505864
 H          5.1735852825       -1.6508505285       -0.2860005730
 H          3.6906579563       -0.6991979643       -2.6341777532
 H          4.1092125066        1.6098801291       -2.6714668997
 H          3.4357088250        3.8607568826       -1.9185753395
 H          1.4210042192        4.1548976108       -0.5368047423
 C         -0.2759337183        2.2594730248        0.3855383372
 H         -0.6333203836        3.2882896879        0.2360947886
 C          0.1256678463        2.1000212904        1.8404340185
 C          0.7166287982        3.2622501251        2.5773536476
 C         -0.6679892218        2.7915596418        2.9058682363
 H         -0.8367985423        2.2745150401        3.8383397013
 H         -1.5026495067        3.4008707063        2.5895768031
 H          1.5070017310        3.0713926535        3.2865028233
 H          0.8164192239        4.1979813663        2.0491186219
 H          0.5069740471        1.1139483597        2.0675683888
 O         -0.8337451849       -0.5512837027        1.2298468349
