  62
        -98.93661408
 C         -1.4863681981       -1.4513537185        0.5509732467
 C         -1.4302773105       -0.3330782220       -0.3152473563
 C         -2.3182845999        0.7991385646        0.0216855576
 C         -3.0371036314        0.7679259106        1.1579579216
 C         -3.9775758247        1.7848100766        1.7707485515
 C         -4.5365542631        2.9335127809        0.9346130343
 C         -5.4845539670        2.5084464268       -0.1864051079
 H         -6.4060398897        2.1291416520        0.2627518808
 H         -5.7410588746        3.3952887976       -0.7700879418
 C         -4.9536305592        1.4301601183       -1.1280902785
 H         -4.7966039842        0.5033718829       -0.5721923021
 H         -5.7274848308        1.2281761959       -1.8737105536
 C         -3.6698144971        1.7870639679       -1.8751373555
 H         -3.8057864365        2.7314640271       -2.4053514284
 H         -3.4978144268        1.0067555674       -2.6213388672
 C         -2.4023440385        1.8883607364       -1.0077267242
 H         -1.5335871370        1.7555355536       -1.6580891395
 H         -2.3225297634        2.8677199927       -0.5430898150
 H         -5.1025142783        3.5694718308        1.6209342056
 H         -3.7281506072        3.5410898664        0.5389040096
 H         -4.8099913397        1.2068595038        2.1849417569
 H         -3.4428101865        2.2091688213        2.6279662419
 O         -2.9545142857       -0.2817718229        2.0295255388
 C         -2.2131906382       -1.4139285639        1.7413268951
 O         -2.2676992627       -2.2975010918        2.6210595775
 H          1.0416839442       -1.3783023687        1.7312140082
 C          1.4804182399       -1.6598727182        0.7809912964
 C          0.7122223737       -2.3763816320       -0.1291177469
 C          1.2808431611       -2.7239638384       -1.3466316715
 C          2.5834808648       -2.3592998783       -1.6403411810
 C          3.3446147723       -1.6467267379       -0.7326761959
 C          2.7829493854       -1.2907095085        0.4870117525
 N          3.5449820662       -0.5572375317        1.4176724213
 S          4.2922009178        0.8376126737        0.8686036948
 O          5.4620901671        0.4818496894        0.1055163174
 O          4.5278568357        1.6292207252        2.0558215963
 C          3.0949561990        1.6370619818       -0.1815552895
 C          3.2384420015        1.5957877928       -1.5527763147
 C          2.2738917804        2.1984629197       -2.3438352279
 C          1.1899273969        2.8275347090       -1.7535466927
 C          1.0591044028        2.8580596946       -0.3740105301
 C          2.0168248172        2.2532112020        0.4214788326
 H          1.9509735118        2.2632604153        1.4982776901
 H          0.2122952259        3.3435564535        0.0840029426
 H          0.4410004532        3.2974492878       -2.3714374938
 H          2.3681785609        2.1719681036       -3.4174118108
 H          4.0998683238        1.1031097470       -1.9726792984
 H          3.0521276007       -0.3701077153        2.2788981191
 H          4.3601793373       -1.3558465380       -0.9468024846
 H          3.0117509555       -2.6317467426       -2.5928916334
 H          0.6967942044       -3.2585213076       -2.0772139277
 C         -0.7011443896       -2.7209105155        0.2704532963
 H         -0.6552109843       -3.2464850633        1.2389466531
 C         -1.3892218221       -3.6672701306       -0.7025883288
 C         -2.8840110021       -3.7111574918       -0.8062551105
 C         -2.0690476993       -3.1848821467       -1.9472135558
 H         -1.9911687159       -3.7883519577       -2.8397789699
 H         -2.0708689780       -2.1235320447       -2.1364597773
 H         -3.3627814003       -4.6731381881       -0.9120820134
 H         -3.4478326849       -3.0083835206       -0.2096018388
 H         -0.8779995360       -4.6230944492       -0.7644999467
 O         -0.6866923412       -0.2645045384       -1.3251839837
