  62
        -98.94569639
 C         -2.5614653440       -0.1261964986        0.0656754503
 C         -2.4281394326       -1.1858516592       -0.8609280964
 C         -1.9115206831       -2.4477633090       -0.3223158866
 C         -1.5994970918       -2.5361611426        0.9836795850
 C         -1.0508451536       -3.7505091501        1.6824099914
 C          0.4691887849       -3.9059764628        1.5353580740
 C          0.9412295833       -4.3902136454        0.1636080469
 H          1.9826036639       -4.6991416026        0.2731910918
 H          0.3674390560       -5.2697884390       -0.1315360549
 C          0.8614179903       -3.3248991116       -0.9385116852
 H          1.7852956308       -3.3315931122       -1.5229523014
 H          0.7925171237       -2.3330025338       -0.4848403203
 C         -0.2926433015       -3.5061923194       -1.9248476155
 H         -0.2819686279       -2.6559164534       -2.6124665787
 H         -0.1353127145       -4.4160773940       -2.5096356383
 C         -1.6815654516       -3.5796805905       -1.2782152243
 H         -2.4301553375       -3.4994757820       -2.0709319581
 H         -1.8090787373       -4.5360312083       -0.7709930489
 H          0.7990598077       -4.6263755223        2.2877020505
 H          0.9397118525       -2.9446263682        1.7570594247
 H         -1.2854427876       -3.6303967056        2.7422129670
 H         -1.5500929020       -4.6472393487        1.3135218692
 O         -1.7721812165       -1.5037871607        1.8502507051
 C         -2.2156817384       -0.2669982165        1.4100659911
 O         -2.2775029904        0.6036902396        2.3000205990
 H         -0.3567398265        0.7855512908       -0.5180432600
 C         -0.5648989387        1.8176344441       -0.2766713716
 C         -1.8832045739        2.2465632552       -0.1912648152
 C         -2.1234057278        3.5858837389        0.0872769809
 C         -1.0668096656        4.4586207298        0.2887837605
 C          0.2421042281        4.0177550563        0.2371974055
 C          0.4929768112        2.6760571709       -0.0354753874
 N          1.8067413886        2.1788334674       -0.0233499429
 S          2.1393177264        0.5670328119       -0.3447106733
 O          1.8326119662        0.2356163982       -1.7202157359
 O          1.5197940254       -0.2441425663        0.6726577846
 C          3.9062763522        0.5814656614       -0.1124816935
 C          4.7417771449        0.6149931736       -1.2124957080
 C          6.1130165059        0.6543387743       -1.0126404146
 C          6.6223678767        0.6612300466        0.2770032441
 C          5.7712745457        0.6250862023        1.3719499213
 C          4.3997495044        0.5850133102        1.1784662094
 H          3.6986598700        0.5473762454        1.9963864981
 H          6.1704420708        0.6271908972        2.3733985144
 H          7.6894867901        0.6919098067        0.4304437698
 H          6.7768195093        0.6790768488       -1.8617633541
 H          4.2992369151        0.5997282050       -2.1955158983
 H          2.5092903337        2.8180519457       -0.3631463896
 H          1.0628288525        4.6949286152        0.4143912685
 H         -1.2680688750        5.4979889684        0.4997307598
 H         -3.1376833183        3.9456428754        0.1488386075
 C         -2.9851793741        1.2416003656       -0.4334522577
 H         -3.1137252931        1.1295803268       -1.5217431509
 C         -4.3104344885        1.6555373521        0.1732332642
 C         -5.2852970405        2.4776257998       -0.6145126634
 C         -5.5685669724        1.0307354970       -0.3487805484
 H         -6.3469216654        0.7739588820        0.3537707929
 H         -5.4682492320        0.3298035121       -1.1648299133
 H         -5.0061920689        2.7598924667       -1.6185569604
 H         -5.8749031275        3.2166268542       -0.0932313455
 H         -4.2399394494        1.8234671450        1.2420109807
 O         -2.7271545475       -1.0802048180       -2.0832801906
