  62
        -98.94046534
 C         -2.5314472770       -1.2655331028        0.1194161049
 C         -3.4048491758       -0.6315468088        1.0426217796
 C         -4.3770860840        0.3111185470        0.4810095183
 C         -4.4178303292        0.5098666340       -0.8485264501
 C         -5.3697682953        1.4154438763       -1.5816795619
 C         -4.9282227064        2.8848817917       -1.6226250600
 C         -5.0508323637        3.6383126509       -0.2974999543
 H         -4.9198247317        4.6992518957       -0.5195047644
 H         -6.0584600934        3.5109135358        0.0992235497
 C         -4.0211854832        3.2254150343        0.7637362603
 H         -3.2013482939        2.6839571260        0.2856803717
 H         -3.5898760280        4.1192640905        1.2198564107
 C         -4.5860711563        2.3672480671        1.8958586937
 H         -5.3134611715        2.9475499687        2.4677004458
 H         -3.7646382943        2.1009609997        2.5658620586
 C         -5.2563116679        1.0682782402        1.4296179075
 H         -6.2179956420        1.2859077744        0.9654020552
 H         -5.4234693903        0.4350615765        2.3042438061
 H         -5.5517967948        3.3911989461       -2.3631068191
 H         -3.8943704462        2.9294190825       -1.9731312561
 H         -5.4250063327        1.0435754299       -2.6071488152
 H         -6.3608423118        1.3445689525       -1.1325898665
 O         -3.5797598722       -0.1300475201       -1.7046986539
 C         -2.6025908646       -1.0093562798       -1.2501772783
 O         -1.8933958654       -1.4726247726       -2.1644260687
 O         -3.3769087342       -0.8552049431        2.2817158257
 C         -1.5231942849       -2.2391839071        0.7034978916
 C         -0.1943221040       -1.5762294089        0.9622690677
 C          0.4445708682       -1.7072556925        2.1894389084
 C          1.6769110940       -1.1159838268        2.4082784846
 C          2.2951842232       -0.3834826461        1.4109835463
 C          1.6647937796       -0.2457701317        0.1810808995
 C          0.4294182460       -0.8385908634       -0.0347253273
 H         -0.0504377132       -0.7397209553       -0.9978924025
 N          2.2849633305        0.5008292388       -0.8394020225
 S          3.8319441040        0.0186273204       -1.2940987940
 O          3.9891307969        0.4680179398       -2.6597717885
 O          4.0335320123       -1.3913343197       -1.0515271542
 C          4.9016589678        0.9781888765       -0.2427609040
 C          5.7985037432        0.3435159566        0.5941283800
 C          6.6242287899        1.1138040337        1.3984334937
 C          6.5391839973        2.4968747808        1.3511942558
 C          5.6353145598        3.1188096006        0.5024909812
 C          4.8080966474        2.3547992304       -0.3050023849
 H          4.0961512010        2.7971162864       -0.9817813136
 H          5.5724590172        4.1945384062        0.4677248233
 H          7.1815786585        3.0940669165        1.9788993956
 H          7.3284092224        0.6324036937        2.0578159252
 H          5.8254516690       -0.7344585280        0.6001404867
 H          1.7033740586        0.6019232349       -1.6597626755
 H          3.2544743138        0.0795384835        1.5748749023
 H          2.1612557040       -1.2255320154        3.3664081373
 H         -0.0356826361       -2.2699864438        2.9764962563
 H         -1.9462302166       -2.5198175778        1.6811339466
 C         -1.3885772614       -3.5180216036       -0.1135243377
 C         -0.1677149894       -3.8847883869       -0.8979864895
 C         -0.4951669112       -4.6252811265        0.3619532088
 H         -0.8471471608       -5.6430829490        0.2903422094
 H          0.1221168330       -4.4285235723        1.2255052602
 H         -0.3147007053       -4.3768876843       -1.8476150362
 H          0.6763604897       -3.2119424170       -0.8913460927
 H         -2.3372796778       -3.8155086738       -0.5496312876
