  62
        -98.93967501
 C         -1.0477876122       -1.3396544957        0.4576865652
 C         -2.0008501426       -1.0930981555       -0.5556359625
 C         -3.0969699581       -0.1638254152       -0.2182004365
 C         -3.1232523055        0.4036321670        1.0009999110
 C         -4.1152017077        1.3888974531        1.5666958623
 C         -5.6010459175        1.1238602669        1.2801211704
 C         -6.2178646955        2.1174828239        0.2941016523
 H         -7.2958785110        2.1566047764        0.4656789603
 H         -5.8175134568        3.1109922251        0.5070247476
 C         -5.9968029538        1.7908852973       -1.1817200095
 H         -6.6049063523        0.9260438177       -1.4556381733
 H         -6.3576102849        2.6406692409       -1.7658958362
 C         -4.5469550626        1.5045831144       -1.5780266034
 H         -3.8682662818        2.1965379670       -1.0791334910
 H         -4.4510526747        1.6864557950       -2.6507635309
 C         -4.1104767925        0.0567119295       -1.3076590049
 H         -4.9871664945       -0.5660952215       -1.1079967710
 H         -3.6420337138       -0.3587559687       -2.2054794484
 H         -5.7335727194        0.1035393845        0.9242141502
 H         -6.1405949537        1.2098212815        2.2247078227
 H         -3.9382107475        1.3796974325        2.6448937833
 H         -3.8398061264        2.3880224670        1.2180569519
 O         -2.1609478007        0.1610269754        1.9371284831
 C         -1.0987261437       -0.6863950891        1.6871581279
 O         -0.2780364550       -0.7778987215        2.6239706579
 H          0.6913348900        0.3095126444       -0.2215896980
 C          1.2050970635       -0.3196473220       -0.9315865903
 C          1.0025021861       -1.6920938577       -0.9025079945
 C          1.6487885364       -2.4756182347       -1.8505223340
 C          2.4643416334       -1.8882574767       -2.8027117864
 C          2.6747147076       -0.5210705383       -2.8172189762
 C          2.0358272660        0.2703375157       -1.8695769608
 N          2.2163813859        1.6612121098       -1.8350863735
 S          2.2576866278        2.4496101429       -0.3607669517
 O          0.9314309104        2.5548131991        0.1954907582
 O          2.9173931265        3.7053204171       -0.6513503366
 C          3.3168194332        1.4417157206        0.6618365430
 C          4.6645827803        1.4391475010        0.3537579199
 C          5.5221074715        0.6353390963        1.0852962695
 C          5.0192248343       -0.1568101297        2.1068668401
 C          3.6667751500       -0.1391133820        2.4072152652
 C          2.8029188159        0.6668981660        1.6808891284
 H          1.7469127550        0.6886464374        1.9022985745
 H          3.2647816950       -0.7499413173        3.2000425937
 H          5.6837404358       -0.7888440184        2.6745284004
 H          6.5755805150        0.6257551189        0.8569335554
 H          5.0172948299        2.0783885488       -0.4392269964
 H          2.9060906220        2.0212398799       -2.4779050370
 H          3.3163980919       -0.0677736367       -3.5568493549
 H          2.9521652914       -2.5067135072       -3.5405852952
 H          1.5080797422       -3.5440239224       -1.8484173887
 C          0.1290987134       -2.2590340082        0.1920917125
 H          0.7241371016       -2.2602045230        1.1184057363
 C         -0.3439946953       -3.6713336773       -0.0835897406
 C          0.4944718366       -4.8436976058        0.3261620080
 C         -0.7665211564       -4.5278949021        1.0710486456
 H         -1.6199082234       -5.1773295567        0.9466352362
 H         -0.6854322074       -4.1001424692        2.0601232835
 H          1.4343069049       -4.6406287194        0.8168931819
 H          0.5055228231       -5.7164754625       -0.3091712659
 H         -0.9202976023       -3.7447492121       -0.9982554491
 O         -1.9427543030       -1.6193212753       -1.6985075405
