  62
        -98.93941047
 C          2.0410446651        0.0324912434        1.1278693557
 C          2.9096111267        1.0326387753        0.6241724342
 C          4.2980632928        0.6101884202        0.3768312769
 C          4.6638224608       -0.6587538370        0.6284489242
 C          6.0221331978       -1.2332445529        0.3513505739
 C          6.0893134006       -1.8423129259       -1.0563955260
 C          5.5575976065       -0.9216183856       -2.1550031254
 H          5.6827598852       -1.4449906787       -3.1054455326
 H          4.4848464203       -0.7750052851       -2.0087028736
 C          6.2514353097        0.4457705467       -2.2287936143
 H          7.2053974869        0.4056885940       -1.7017361959
 H          6.4684892813        0.6718115210       -3.2749199978
 C          5.4202869465        1.6090018693       -1.6847595726
 H          5.9074506694        2.5420411456       -1.9801709831
 H          4.4291633116        1.5969710315       -2.1447979992
 C          5.2438567988        1.6470157384       -0.1616118729
 H          6.2182886764        1.5689375923        0.3243992821
 H          4.8060439932        2.6154720488        0.0971908684
 H          5.4978557961       -2.7609317561       -1.0643069711
 H          7.1271848363       -2.1048838880       -1.2694860144
 H          6.7709272790       -0.4505282085        0.4561927550
 H          6.2215257976       -2.0152735839        1.0859535806
 O          3.8067238913       -1.5884884912        1.1236070479
 C          2.4833719693       -1.2706934141        1.3735208102
 O          1.8061104437       -2.2204083862        1.8173461602
 H         -1.5337523898       -1.3974578697        1.0657757087
 C         -1.2932095488       -0.8412417610        0.1722138724
 C         -0.2481306575        0.0704695497        0.1751339776
 C          0.0379455702        0.7671859673       -0.9963869098
 C         -0.6974053925        0.5408896737       -2.1441581359
 C         -1.7434001634       -0.3665400921       -2.1421314384
 C         -2.0438339257       -1.0584158968       -0.9761575093
 N         -3.1140574404       -1.9759461785       -0.9337391031
 S         -4.3559228846       -1.6424215729        0.1404889827
 O         -3.8760547481       -1.7475500197        1.4935808569
 O         -5.4311679873       -2.5318200972       -0.2365374012
 C         -4.7963580570        0.0452525616       -0.2329274625
 C         -5.7185969040        0.2887239063       -1.2320290477
 C         -5.9951985508        1.6002056329       -1.5829519627
 C         -5.3399687677        2.6398441834       -0.9400337620
 C         -4.4164194600        2.3790632411        0.0606032170
 C         -4.1391771439        1.0692515897        0.4184760589
 H         -3.4303600227        0.8258807849        1.1925892353
 H         -3.9065035028        3.1857826909        0.5626688517
 H         -5.5506913695        3.6603359711       -1.2183916925
 H         -6.7157843132        1.8073889075       -2.3576617048
 H         -6.2088460567       -0.5489375739       -1.7014523264
 H         -3.5045392183       -2.1814594190       -1.8431272861
 H         -2.3197480249       -0.5426388623       -3.0379852639
 H         -0.4608726946        1.0819291209       -3.0476523916
 H          0.8407522431        1.4882909202       -0.9898591197
 C          0.5705622351        0.2830299490        1.4241059767
 H          0.2845455128       -0.5028367520        2.1404954046
 C          0.3140194104        1.6330647989        2.0853707469
 C         -0.6839563136        2.6170233215        1.5568449919
 C         -0.9784018283        1.8578797082        2.8130624819
 H         -0.9577522956        2.3818102140        3.7568316408
 H         -1.7111264308        1.0642089453        2.7721918245
 H         -0.4395060975        3.6654886364        1.6335054479
 H         -1.2295441159        2.3585442081        0.6625945179
 H          1.2040815971        2.0495236164        2.5418490645
 O          2.5662435395        2.2184497831        0.3845619810
