  62
        -98.94298725
 C          2.6821699933        1.2040008709        0.1284034519
 C          2.6956031249        0.2090892704       -0.8783699799
 C          3.8860255727       -0.6529914036       -0.9068188311
 C          4.8753615770       -0.4421293553       -0.0195446954
 C          6.1137380582       -1.2814987413        0.0993659250
 C          5.9128013226       -2.4265236033        1.1020757413
 C          4.6292859820       -3.2263284974        0.8781239163
 H          4.6102949406       -4.0247750995        1.6230951426
 H          3.7684005414       -2.5831462861        1.0749937558
 C          4.4956322739       -3.8333905689       -0.5254433729
 H          5.4712724732       -3.8592911901       -1.0121615962
 H          4.1540716588       -4.8660747054       -0.4287409931
 C          3.4948354242       -3.1168558703       -1.4340467410
 H          3.3174113035       -3.7483187325       -2.3086635447
 H          2.5407020733       -3.0040752875       -0.9127926729
 C          3.9282498381       -1.7374854996       -1.9461750649
 H          3.2201639406       -1.4343443760       -2.7229519946
 H          4.9217368685       -1.8055922291       -2.3939571769
 H          6.7747355871       -3.0934551964        1.0414502496
 H          5.8809607545       -2.0032214687        2.1087574706
 H          6.9289588816       -0.6448385131        0.4471528186
 H          6.3706539678       -1.6821339238       -0.8792164506
 O          4.8364785203        0.5416084739        0.9158722289
 C          3.7369651247        1.3767840608        1.0240293414
 O          3.8157931048        2.2181857387        1.9423485492
 O          1.7648663464        0.0476881077       -1.7099493167
 C          1.4849799653        2.1284380084        0.2597320780
 C          0.2356080760        1.3132847112        0.4913084486
 C          0.2268531864        0.3877635945        1.5322244103
 C         -0.8913712366       -0.3819721946        1.7852609771
 C         -2.0283568178       -0.2477259378        1.0067943023
 C         -2.0365957105        0.6808665863       -0.0236093005
 C         -0.9109104456        1.4583989416       -0.2720393070
 H         -0.9342328706        2.1737473430       -1.0792869106
 N         -3.1811814398        0.8186639721       -0.8229910647
 S         -4.6907987218        0.8953260923       -0.1009027712
 O         -5.5276445309        1.5892549890       -1.0552351431
 O         -4.6165196953        1.4684484758        1.2229074620
 C         -5.2099966645       -0.8050433902       -0.0039746130
 C         -5.2091688692       -1.5539444084       -1.1643421229
 C         -5.6195904688       -2.8761796640       -1.1075768431
 C         -6.0246091255       -3.4234302787        0.1008564321
 C         -6.0235787397       -2.6572866206        1.2563115741
 C         -5.6132343616       -1.3340820491        1.2063206978
 H         -5.5912748989       -0.7024857416        2.0803029539
 H         -6.3393318411       -3.0843524335        2.1946360419
 H         -6.3429795491       -4.4531577158        0.1420985969
 H         -5.6214159868       -3.4752565316       -2.0039855889
 H         -4.8898609238       -1.0922448986       -2.0837570553
 H         -3.0895607824        1.4959174237       -1.5656723284
 H         -2.9023375530       -0.8491514512        1.1956528934
 H         -0.8789234643       -1.0975690145        2.5935854982
 H          1.1158392552        0.2808614029        2.1398093393
 H          1.6651169106        2.7343868756        1.1598093005
 C          1.4057517278        3.0512523466       -0.9382822230
 C          0.7478692530        4.3920774583       -0.8150866148
 C          2.2377162991        4.2968211256       -0.9465141883
 H          2.6953808208        4.6056204564       -1.8743439730
 H          2.8443352644        4.4930595430       -0.0743102697
 H          0.1843750365        4.7716521671       -1.6544955610
 H          0.3394745857        4.6625940209        0.1471704175
 H          1.3046263798        2.5130328830       -1.8738715082
