  62
        -98.94962491
 C         -1.6871866074       -1.2136490681        0.3076245812
 C         -1.3273996470       -0.1490317267       -0.5509241984
 C         -1.8648878973        1.1707844820       -0.2007088599
 C         -2.6053036250        1.3029714936        0.9146897993
 C         -3.2396532011        2.5825999566        1.3756381125
 C         -4.6601499820        2.7385746697        0.8144975343
 C         -4.7585147234        2.4997483416       -0.6920966136
 H         -4.5287286637        1.4525415609       -0.9009955342
 H         -5.7988802223        2.6654140811       -0.9798915253
 C         -3.8440065790        3.3974453702       -1.5369996835
 H         -4.4162401690        3.7818420509       -2.3839154254
 H         -3.5208038283        4.2559590730       -0.9472653206
 C         -2.6168967351        2.6885229039       -2.1127159384
 H         -2.1639513981        3.3461550044       -2.8591434311
 H         -2.9298947159        1.7756216659       -2.6252481427
 C         -1.5211511219        2.3220742884       -1.1032603375
 H         -0.6392131750        2.0061552390       -1.6680886359
 H         -1.2474903368        3.2002986077       -0.5141864722
 H         -5.3111660605        2.0209915526        1.3192314326
 H         -5.0149712596        3.7435165472        1.0505105389
 H         -3.2862235706        2.5673194853        2.4661073035
 H         -2.6172273993        3.4195089956        1.0641342497
 O         -2.9014790368        0.2636699110        1.7368161767
 C         -2.4474302044       -1.0149435407        1.4579922161
 O         -2.7812031275       -1.8770595146        2.2982927053
 O         -0.5874587140       -0.2957788464       -1.5600309198
 C         -1.1606714633       -2.6099511226        0.0291019743
 C          0.3456692566       -2.5751616729       -0.0698081411
 C          1.0674629330       -3.2907845386       -1.0171681522
 C          2.4475992002       -3.1947309556       -1.0674136075
 C          3.1332000132       -2.3699865212       -0.1942645531
 C          2.4204092739       -1.6596932932        0.7646375664
 C          1.0439073406       -1.7910544044        0.8396765097
 H          0.5057023955       -1.2347228618        1.5936287388
 N          3.0649207937       -0.7902746545        1.6699101421
 S          2.6662359558        0.8365539630        1.5888114213
 O          3.5104949599        1.4756084584        2.5760684453
 O          1.2462044861        1.0099168456        1.7542349148
 C          3.1877958655        1.3396357094       -0.0421074516
 C          2.4122859049        1.0067518167       -1.1345378533
 C          2.8660044333        1.3467442557       -2.4002528511
 C          4.0763404796        2.0048044435       -2.5525793768
 C          4.8434533759        2.3305302460       -1.4439487497
 C          4.3994460391        1.9908462662       -0.1765666348
 H          4.9591053235        2.2249826110        0.7146953723
 H          5.7838378899        2.8441081511       -1.5629623562
 H          4.4218709115        2.2655122334       -3.5405167172
 H          2.2629565852        1.0882535372       -3.2560293319
 H          1.4707053797        0.4975806079       -0.9970766204
 H          4.0722988769       -0.8796727107        1.6705121559
 H          4.2069673147       -2.2734102875       -0.2513541204
 H          2.9947333229       -3.7550828541       -1.8099798581
 H          0.5478133558       -3.9192107234       -1.7219001746
 H         -1.4365141416       -3.2212394592        0.9012809635
 C         -1.8291750384       -3.1840649043       -1.2038076623
 C         -2.0715885040       -4.6582660137       -1.3197076251
 C         -3.2205103909       -3.7261934685       -1.0821534241
 H         -3.9174047745       -3.5464175956       -1.8869710905
 H         -3.6731507047       -3.7066011153       -0.1010469831
 H         -1.9839094379       -5.1210330768       -2.2911525096
 H         -1.7520251687       -5.2841640707       -0.5002429580
 H         -1.5845414543       -2.6306660250       -2.1032890642
