  62
        -98.93970189
 C         -2.1181064907       -0.3626481075        0.2790776040
 C         -2.8304670543        0.8376574467        0.0233712952
 C         -4.1837660240        0.6902207870       -0.5213185069
 C         -4.6684997354       -0.5393015755       -0.7717501648
 C         -6.0198660634       -0.8597565982       -1.3506741889
 C         -7.1521151401       -0.8907990498       -0.3150526672
 C         -7.5806318834        0.4754636531        0.2216990098
 H         -7.7906023882        1.1436079487       -0.6140842802
 H         -8.5167840215        0.3276918499        0.7637879487
 C         -6.5633785221        1.1325724475        1.1650889384
 H         -5.8539721821        0.3802934906        1.5177150810
 H         -7.0805159702        1.5212605835        2.0452932305
 C         -5.7844607092        2.2943827100        0.5480736057
 H         -6.4701662688        3.1111494657        0.3117404636
 H         -5.0688037244        2.6596348760        1.2892497925
 C         -5.0046280243        1.9282170310       -0.7215275074
 H         -5.6895980075        1.7991342045       -1.5593980141
 H         -4.3190739926        2.7475436490       -0.9517029133
 H         -6.8473222267       -1.5297950386        0.5169059708
 H         -8.0171272933       -1.3568517686       -0.7924779628
 H         -6.2619110220       -0.1415557776       -2.1345992293
 H         -5.9376370120       -1.8516557163       -1.8001501617
 O         -3.9483925197       -1.6657958594       -0.5372282454
 C         -2.6658604575       -1.6159919160        0.0004275028
 O         -2.1537460692       -2.7377830675        0.1637699620
 H          1.3189431335        1.5515725335        0.6534228859
 C          1.3094235581        0.8341068634       -0.1528064379
 C          0.3239680717       -0.1404145822       -0.2121435816
 C          0.3389259501       -1.0432117114       -1.2715327922
 C          1.3132178260       -0.9630355975       -2.2493494961
 C          2.3043070100        0.0009330583       -2.1777126786
 C          2.3033667879        0.9010389904       -1.1199738928
 N          3.3102906091        1.8813717714       -0.9938808393
 S          4.3346618096        1.7309074994        0.3245211561
 O          3.5674562429        1.7912356351        1.5404842010
 O          5.3490148858        2.7436095615        0.1424949385
 C          5.0536495167        0.1098127162        0.1257027498
 C          4.3425768911       -0.9923957511        0.5567605593
 C          4.8633533320       -2.2562546951        0.3284268997
 C          6.0786147906       -2.3953121924       -0.3244303789
 C          6.7817993502       -1.2781459350       -0.7496831975
 C          6.2637730557       -0.0120881987       -0.5290900266
 H          6.7774282736        0.8838175125       -0.8387973064
 H          7.7281703231       -1.3900126312       -1.2538729122
 H          6.4796332462       -3.3808658132       -0.5009556022
 H          4.3148302477       -3.1234535959        0.6598885477
 H          3.4040398028       -0.8484009279        1.0659969994
 H          3.8631790141        2.0023794122       -1.8316027804
 H          3.0697314028        0.0588987489       -2.9369535943
 H          1.3079338153       -1.6657577913       -3.0685228418
 H         -0.4175713897       -1.8120549905       -1.3139989386
 C         -0.7274368768       -0.2116677840        0.8667028590
 H         -0.7403414410        0.7691411267        1.3690451698
 C         -0.3985544423       -1.2589459593        1.9234896909
 C          0.6797922606       -2.2826638013        1.7517370342
 C          0.8751427828       -1.1467531407        2.7084654433
 H          0.8474334574       -1.3519642976        3.7681325611
 H          1.5598490186       -0.3548089255        2.4381173030
 H          1.2378453137       -2.2825994005        0.8283879800
 H          0.4980839444       -3.2693991473        2.1490964181
 H         -1.2798967541       -1.5762845548        2.4706238202
 O         -2.3530745981        1.9831275699        0.2459558322
