  62
        -98.94439123
 C         -1.8601799312       -1.0377505343       -0.2140514455
 C         -2.3959706636        0.1017946996       -0.8606347395
 C         -3.8600746129        0.2310295802       -0.8150484520
 C         -4.5888774486       -0.7222043938       -0.2060533793
 C         -6.0801938679       -0.6877300454       -0.0411386497
 C         -6.4766506801       -0.0130912529        1.2796517371
 C         -5.7850851220        1.3289932720        1.5195704339
 H         -6.1634509537        1.7255580968        2.4642272435
 H         -4.7133086937        1.1609276031        1.6475262903
 C         -6.0037295521        2.3636583931        0.4069250524
 H         -6.8633035441        2.0785317721       -0.2007824180
 H         -6.2364353529        3.3271089364        0.8653860633
 C         -4.7924526199        2.5841710285       -0.5013805521
 H         -3.9060674584        2.7787729668        0.1080284865
 H         -4.9772845852        3.4778062825       -1.1036185671
 C         -4.4672400622        1.4397305750       -1.4696395669
 H         -5.3626656789        1.1668293236       -2.0319279907
 H         -3.7159193607        1.8059513210       -2.1756364414
 H         -7.5590450587        0.1273916346        1.2842280692
 H         -6.2174199659       -0.6837174385        2.1021390192
 H         -6.5212449003       -0.1544228880       -0.8809166698
 H         -6.4499463690       -1.7144628138       -0.0397222497
 O         -4.0382044961       -1.8156527868        0.3806357597
 C         -2.6648221522       -1.9951800415        0.4030321529
 O         -2.2886598890       -3.0269454897        0.9950402256
 H          1.8421649504        0.1569841186       -1.1176399030
 C          1.4428141643        0.5323786789       -0.1907348432
 C          0.3378602473       -0.0608860507        0.3986560463
 C         -0.1430997629        0.4674553939        1.5948745424
 C          0.4454678128        1.5778580057        2.1660046338
 C          1.5392145423        2.1776660382        1.5659687204
 C          2.0367055329        1.6508871713        0.3813437603
 N          3.1419202443        2.2402145803       -0.2505828881
 S          4.3206878212        1.2765880054       -0.9346849074
 O          5.4966752941        2.1190808859       -0.9748612391
 O          3.8786325677        0.7536627554       -2.2020807780
 C          4.5602659895       -0.0521239583        0.2318945459
 C          4.3364139405       -1.3563382143       -0.1560386806
 C          4.5048168789       -2.3710993559        0.7728784763
 C          4.8896187394       -2.0642719626        2.0684060953
 C          5.1169012677       -0.7482041957        2.4418073233
 C          4.9514347853        0.2694398042        1.5170323736
 H          5.1308093695        1.3010364635        1.7724760731
 H          5.4199046990       -0.5138348545        3.4495331599
 H          5.0153413742       -2.8558253754        2.7902367570
 H          4.3330743551       -3.3955058945        0.4824586761
 H          4.0349942793       -1.5515256929       -1.1720731700
 H          3.5400975062        3.0276980097        0.2389804632
 H          1.9950821514        3.0523382859        2.0042510554
 H          0.0521141450        1.9811853054        3.0869814222
 H         -0.9988650214       -0.0002875829        2.0630878135
 C         -0.3581516103       -1.2598221789       -0.1970108362
 H         -0.1853767861       -2.1218579811        0.4640789856
 C          0.1220041801       -1.6115796382       -1.5897015357
 C          1.2872949243       -2.5329738151       -1.7804161798
 C         -0.0993176554       -3.0029655750       -2.0995873907
 H         -0.3774392348       -3.1351517150       -3.1344724968
 H         -0.5696649224       -3.7060971479       -1.4274097723
 H          1.9648420655       -2.3398171702       -2.5991492032
 H          1.7593739860       -2.9270930426       -0.8933713363
 H         -0.0071021486       -0.7973494104       -2.2942140920
 O         -1.6918723698        0.9673149915       -1.4435120491
