  62
        -98.93121835
 C          1.5187098726        1.6776574803        0.4444663305
 C          1.6685755250        0.3365988495        0.8775265941
 C          2.8674093999       -0.3881695185        0.4217605688
 C          3.7292493760        0.2368842778       -0.4000442551
 C          5.0284293069       -0.2706003414       -0.9738781141
 C          5.0420753342       -1.7130224756       -1.5026867472
 C          5.8411115096       -2.6778623593       -0.6240308184
 H          6.1726513820       -3.5169654306       -1.2398835799
 H          6.7362878881       -2.1629976254       -0.2687285020
 C          5.0837382509       -3.2546832782        0.5709899360
 H          4.3418794111       -3.9729560624        0.2155518680
 H          5.8025742846       -3.8063225217        1.1815199416
 C          4.3768951043       -2.2255733060        1.4552082057
 H          5.0084846274       -1.3492334703        1.5980553919
 H          4.2293201739       -2.6749576691        2.4394891776
 C          3.0009238823       -1.8006718997        0.9197159701
 H          2.6853473133       -2.4833359628        0.1267563292
 H          2.2516742948       -1.8851912419        1.7125477556
 H          5.5061584576       -1.6984451738       -2.4903212134
 H          4.0221927829       -2.0709588094       -1.6320708775
 H          5.8082330918       -0.1470269555       -0.2177227432
 H          5.2696468476        0.4227339786       -1.7829350196
 O          3.5266230799        1.5162651032       -0.8218658396
 C          2.4238587048        2.2673034020       -0.4365438280
 O          2.3920786919        3.4027156063       -0.9436833139
 O          0.8328012781       -0.2281943187        1.6329116905
 C          0.2775246260        2.3985204318        0.9405550682
 C         -0.8894893923        1.9854067404        0.0818043613
 C         -0.8448539292        2.1281722006       -1.3017336427
 C         -1.8994840333        1.6960588607       -2.0847480370
 C         -3.0084873665        1.0996305213       -1.5086488480
 C         -3.0536574995        0.9377550906       -0.1308687721
 C         -2.0015826495        1.3895160038        0.6553911402
 H         -2.0360723683        1.2492891056        1.7269871731
 N         -4.1650998949        0.3025275178        0.4594128573
 S         -4.4996847631       -1.2558262533       -0.0628784619
 O         -5.0319945496       -1.2001317712       -1.4005013924
 O         -5.3679282580       -1.8160308693        0.9473239349
 C         -2.9220884707       -2.0856382225       -0.0602834574
 C         -2.1864080453       -2.1543066786       -1.2255577044
 C         -0.9346528999       -2.7471677289       -1.1904698939
 C         -0.4440444736       -3.2556141279        0.0014641769
 C         -1.1937340143       -3.1758917574        1.1639877303
 C         -2.4434253195       -2.5807092260        1.1362875446
 H         -3.0596396109       -2.5058852238        2.0180979280
 H         -0.8035815045       -3.5665819218        2.0897157036
 H          0.5298423720       -3.7180778694        0.0277639874
 H         -0.3454479307       -2.8060157675       -2.0918963845
 H         -2.6047340811       -1.7529322211       -2.1340090902
 H         -4.1368395209        0.3163185345        1.4695113441
 H         -3.8305575296        0.7416264341       -2.1070440124
 H         -1.8565289221        1.8185745217       -3.1565652657
 H          0.0301836486        2.5740446481       -1.7523960544
 H          0.0991102650        1.9926533431        1.9493542240
 C          0.4351597168        3.9035110176        1.0819024239
 C         -0.2813781268        4.8983601720        0.2238985970
 C         -0.6916619703        4.7139564000        1.6521426449
 H         -0.4636889474        5.4919397693        2.3647852564
 H         -1.6247344040        4.2028357689        1.8381218552
 H          0.2547822463        5.7927565154       -0.0541836036
 H         -0.9433765989        4.5331755976       -0.5452694197
 H          1.4365331093        4.1792988427        1.3939650588
