  62
        -98.94264094
 C          1.9546811878        1.5566012427       -0.0455315194
 C          1.5753550739        0.2792802465       -0.5304704460
 C          2.6655064241       -0.7037442869       -0.6550281446
 C          3.9240554987       -0.3458452764       -0.3461788625
 C          5.1156308216       -1.2569530891       -0.3952489350
 C          5.3503418083       -1.9359811297        0.9612190622
 C          4.0933293728       -2.5684830165        1.5584115828
 H          4.3839436710       -3.0454282596        2.4970574244
 H          3.3801891952       -1.7790222162        1.8071320461
 C          3.4106931266       -3.5999076804        0.6495929445
 H          4.1092842567       -3.9362307630       -0.1174540899
 H          3.1456987162       -4.4724506343        1.2505184331
 C          2.1229563391       -3.1096004123       -0.0155312381
 H          1.6180662235       -3.9781867698       -0.4453191417
 H          1.4588354352       -2.6820927262        0.7396577813
 C          2.2963042811       -2.0782510243       -1.1373590038
 H          3.0250564810       -2.4416683907       -1.8647400633
 H          1.3300246255       -1.9668865147       -1.6377893698
 H          6.1209641606       -2.6991016849        0.8371548579
 H          5.7244788798       -1.1873209191        1.6635594289
 H          4.9621160385       -2.0074953739       -1.1680778213
 H          5.9939571739       -0.6610642431       -0.6497232081
 O          4.2509811919        0.8939984077        0.1012809395
 C          3.2759935709        1.8578994835        0.2956659303
 O          3.7044480688        2.9293588077        0.7696952995
 O          0.4017571205       -0.0388672316       -0.8488838910
 C          0.9334787339        2.6572369897        0.1928394350
 C         -0.2817534649        2.0717548367        0.8669740831
 C         -0.1531924633        1.5658208165        2.1573464398
 C         -1.2264677034        0.9738245110        2.7953351699
 C         -2.4521256511        0.8727692704        2.1605830246
 C         -2.5888486895        1.3712779847        0.8724303920
 C         -1.5114286322        1.9744655701        0.2371835180
 H         -1.6280233687        2.3358782063       -0.7724584735
 N         -3.8282779313        1.2731068025        0.2118960663
 S         -4.5779075029       -0.2213845123        0.1320963596
 O         -5.5915225392       -0.0721873160       -0.8885371262
 O         -5.0508736717       -0.5854798302        1.4445777620
 C         -3.3301150768       -1.3711733704       -0.4119541809
 C         -3.0420394896       -1.4294931194       -1.7603691377
 C         -2.0632503457       -2.3043786341       -2.1991319912
 C         -1.3888206672       -3.0971103813       -1.2846882165
 C         -1.6827874942       -3.0198656753        0.0668514039
 C         -2.6619222859       -2.1472688107        0.5119846637
 H         -2.9239248535       -2.0630220595        1.5540619929
 H         -1.1506424613       -3.6349778882        0.7749916581
 H         -0.6284632256       -3.7805048826       -1.6289596695
 H         -1.8256572000       -2.3622303781       -3.2494435716
 H         -3.5970849425       -0.8048793163       -2.4420766937
 H         -3.8218217104        1.6959387031       -0.7055094183
 H         -3.2983620539        0.4072850837        2.6393333090
 H         -1.1092980957        0.5840481495        3.7955074332
 H          0.8081528680        1.6316267099        2.6496395520
 H          1.4173890184        3.3473019638        0.9032610733
 C          0.5982479557        3.4760930739       -1.0449496564
 C          1.6372118864        3.7442021645       -2.0913003323
 C          0.4678886846        2.8625764027       -2.4056717387
 H         -0.2944800623        3.2451107956       -3.0691837384
 H          0.6318244425        1.8003144578       -2.4942547356
 H          1.6768200631        4.7279866153       -2.5343924015
 H          2.6068326073        3.2859808819       -1.9615449580
 H         -0.0722808632        4.2986761948       -0.8136887732
