  62
        -98.94524182
 C          2.4529228010        1.2170201709       -0.0809366939
 C          3.5033495912        0.7837616116        0.7683704009
 C          4.3527816531       -0.2915021612        0.2473442262
 C          4.1096018336       -0.7999115528       -0.9742428320
 C          4.8949959466       -1.8895657847       -1.6521401509
 C          4.4696634375       -3.3075919574       -1.2468815103
 C          4.8828037473       -3.7326566456        0.1628356812
 H          4.7173873200       -4.8095607583        0.2330691302
 H          5.9509461438       -3.5577309097        0.2951999409
 C          4.1017529934       -3.0397078003        1.2882137589
 H          3.1902207755       -2.5959398651        0.8799557209
 H          3.7904157798       -3.7828291333        2.0258230780
 C          4.8876140928       -1.9618708455        2.0352201545
 H          4.2270063789       -1.5129490712        2.7811279988
 H          5.7281719895       -2.4200358955        2.5609210837
 C          5.4254930113       -0.8372767220        1.1408172283
 H          6.2671227616       -1.1964143225        0.5492523398
 H          5.7692303393       -0.0229941832        1.7831865019
 H          3.3847367859       -3.3895134855       -1.3495259106
 H          4.9234152203       -3.9998753812       -1.9599043411
 H          4.7261725711       -1.7731558396       -2.7248609593
 H          5.9580980265       -1.7553716396       -1.4505286782
 O          3.0990634466       -0.3507139697       -1.7640900107
 C          2.2334165386        0.6458061894       -1.3343945357
 O          1.3439819300        0.9274810158       -2.1619469217
 O          3.7220395337        1.2775683357        1.9058728477
 C          1.5225801079        2.3002286448        0.4420874379
 C          0.1935881222        1.6565896017        0.7507071636
 C          0.0076660802        1.0295030307        1.9797534187
 C         -1.1699829135        0.3628390903        2.2609043929
 C         -2.1816792975        0.2953169253        1.3184532802
 C         -1.9978243446        0.9009884771        0.0833656755
 C         -0.8254412650        1.5939789354       -0.1870762933
 H         -0.6907031483        2.0475297230       -1.1563332841
 N         -3.0112494404        0.8154120727       -0.8890756322
 S         -3.6264647386       -0.7119703734       -1.2266067169
 O         -2.6616203527       -1.7528049408       -0.9548576673
 O         -4.1254387457       -0.6313045970       -2.5823389155
 C         -5.0113678264       -0.8566228527       -0.1145114144
 C         -5.1014792576       -1.9385728884        0.7391592491
 C         -6.1914455163       -2.0317722814        1.5908420948
 C         -7.1673579790       -1.0472188422        1.5729827843
 C         -7.0640110442        0.0313748952        0.7070662618
 C         -5.9776216493        0.1298631812       -0.1473978735
 H         -5.8608876162        0.9487471554       -0.8372712837
 H         -7.8250741108        0.7948629158        0.6956791064
 H         -8.0134789000       -1.1212362757        2.2377319607
 H         -6.2733710874       -2.8701663015        2.2638370436
 H         -4.3150890396       -2.6765525782        0.7219504477
 H         -2.7724486396        1.2891302929       -1.7491701320
 H         -3.0974981126       -0.2340921768        1.5246004780
 H         -1.3016694779       -0.1140971427        3.2202478859
 H          0.8079700189        1.0586682076        2.7059319710
 H          1.9694976164        2.6307513645        1.3892392872
 C          1.4287872779        3.4884682561       -0.4911597207
 C          0.8387638442        4.7692922860        0.0162502543
 C          2.3098880069        4.6764509499       -0.2523537904
 H          2.7133759305        5.1970717485       -1.1079062343
 H          2.9828717805        4.6377080887        0.5915373003
 H          0.2296905394        5.3576469747       -0.6527483588
 H          0.5117655423        4.7916371123        1.0446996004
 H          1.2403555249        3.2155251956       -1.5221278229
