  62
        -98.94393838
 C          1.8275739991        1.1326763283        0.2320484359
 C          2.1607264998        0.1177600029       -0.6967048158
 C          3.5898987097       -0.0060249534       -1.0210382653
 C          4.4713928232        0.8390997739       -0.4559060237
 C          5.9581160822        0.7874964745       -0.6545321254
 C          6.6294244243       -0.0918384951        0.4098294887
 C          5.9689183302       -1.4590301461        0.5874895291
 H          6.5433981186       -2.0025408629        1.3407182591
 H          4.9624286934       -1.3205164746        0.9890515132
 C          5.8883662272       -2.2967342131       -0.6962938921
 H          6.1895470051       -3.3208581063       -0.4660113984
 H          6.5913396858       -1.9109673335       -1.4354885204
 C          4.4922508973       -2.3729332583       -1.3175836550
 H          3.7659484276       -2.6702397845       -0.5564709023
 H          4.5019553502       -3.1549752375       -2.0816853014
 C          3.9877281310       -1.0874917477       -1.9855550247
 H          4.7357418924       -0.7209461889       -2.6916517981
 H          3.0808098487       -1.3382482873       -2.5440650212
 H          7.6776639365       -0.2251690392        0.1365847659
 H          6.5914608950        0.4334538030        1.3669004940
 H          6.1734100228        0.4014421824       -1.6488747406
 H          6.3511541953        1.8023896359       -0.5751432920
 O          4.1085688680        1.8176739995        0.4122150396
 C          2.7851277165        1.9808506885        0.7878557663
 O          2.5920606930        2.8979597047        1.6112697956
 H         -2.0323722085        0.1200208711        0.0730331494
 C         -1.4439428088       -0.4243820896        0.7921463441
 C         -0.1976483229        0.0453519198        1.1768341098
 C          0.5317268930       -0.6861810751        2.1110054423
 C          0.0394079254       -1.8710973769        2.6209833435
 C         -1.1937402347       -2.3499837921        2.2149033966
 C         -1.9390229984       -1.6195940431        1.2974398680
 N         -3.2143067051       -2.0554061076        0.9185559368
 S         -3.8775190077       -1.7147454901       -0.5750384579
 O         -4.9904866966       -2.6361184147       -0.6793601393
 O         -2.9081040373       -1.7763018076       -1.6425669915
 C         -4.5219511002       -0.0620785466       -0.4162910494
 C         -4.4878076058        0.7724829448       -1.5157058783
 C         -5.0363992824        2.0416339511       -1.4136040255
 C         -5.6061200221        2.4525567781       -0.2184396866
 C         -5.6323477276        1.6022022338        0.8763796285
 C         -5.0909456725        0.3303220562        0.7791142134
 H         -5.0956715682       -0.3552514108        1.6096990045
 H         -6.0742267789        1.9261613131        1.8047958694
 H         -6.0292718722        3.4415395910       -0.1407729966
 H         -5.0166385228        2.7033122489       -2.2652906487
 H         -4.0225275111        0.4167483380       -2.4216377374
 H         -3.4782798560       -2.9697603616        1.2537008059
 H         -1.5761227216       -3.2809817758        2.6047690331
 H          0.6217483681       -2.4317731328        3.3368945516
 H          1.4986645495       -0.3150168641        2.4237835498
 C          0.3813573648        1.3340466824        0.6467718615
 H          0.4022498570        2.0631045898        1.4705250848
 C         -0.4126508858        1.9244806145       -0.5001674275
 C         -1.5703936414        2.8345556833       -0.2227088292
 C         -0.2948103335        3.3921164418       -0.7771302213
 H         -0.2770854229        3.7226675913       -1.8047556542
 H          0.3436074075        3.9673142950       -0.1222418616
 H         -1.8058681290        3.0405751248        0.8103460600
 H         -2.4333465720        2.7833480108       -0.8691425278
 H         -0.4753861981        1.2556529217       -1.3520012802
 O          1.3126694596       -0.6479503647       -1.2256555814
