  62
        -98.92972178
 C         -2.3677774397       -0.9813589313        0.3749656195
 C         -2.9282282601        0.0485690686        1.1691050493
 C         -3.8965607504        0.9555689382        0.5221715590
 C         -4.1515037802        0.7951160379       -0.7894073410
 C         -5.0747234604        1.5949571375       -1.6706245712
 C         -4.5007450009        2.9689772876       -2.0478311113
 C         -3.8795035612        3.7431359980       -0.8887591314
 H         -3.0712256211        3.1509971283       -0.4560368412
 H         -3.4320494315        4.6520985281       -1.2993250815
 C         -4.8531470815        4.1571498178        0.2122239485
 H         -5.6547779117        4.7566743975       -0.2245971217
 H         -4.3026232218        4.7960034981        0.9074767484
 C         -5.4798338112        3.0152800677        1.0163770186
 H         -6.2963895709        2.5490381973        0.4714076286
 H         -5.9197177414        3.4546009777        1.9164351985
 C         -4.4915391008        1.9530859981        1.4871014388
 H         -3.6448053610        2.4421738985        1.9821872288
 H         -4.9713106207        1.3523346981        2.2693317889
 H         -3.7247463208        2.8160181878       -2.8019162612
 H         -5.2978261910        3.5619029273       -2.4997727715
 H         -5.2129319801        1.0135827773       -2.5850325911
 H         -6.0458593805        1.6998741072       -1.1958118913
 O         -3.5292588298       -0.1622466920       -1.5337830508
 C         -2.6371711296       -1.0737416916       -0.9911677006
 O         -2.1768148192       -1.8794824916       -1.8196512004
 O         -2.6349237003        0.2120903189        2.3848410593
 C         -1.4208557094       -1.9532262909        1.0558285197
 C         -0.1533040793       -2.1183801605        0.2566653198
 C          0.1497902212       -3.2712974605       -0.4548684100
 C          1.3267078213       -3.3574180802       -1.1772319199
 C          2.2254628909       -2.3072582299       -1.1998846500
 C          1.9373658504       -1.1521370199       -0.4844244402
 C          0.7562041003       -1.0678941002        0.2388679997
 H          0.5265879500       -0.1660953502        0.7935756496
 N          2.8455777900       -0.0756480196       -0.5056981502
 S          4.4828731302       -0.4671192290       -0.3402493300
 O          4.9944594904       -0.8430977390       -1.6344130299
 O          4.6550251504       -1.4416220388        0.7137262201
 C          5.1770111396        1.1006667913        0.1450695498
 C          5.4399840993        2.0427110512       -0.8314692803
 C          5.9684597289        3.2670793915       -0.4547640504
 C          6.2239023287        3.5275106418        0.8835450895
 C          5.9560524089        2.5715355218        1.8517515097
 C          5.4258438694        1.3453587216        1.4822334398
 H          5.2112529496        0.5690979216        2.1992505699
 H          6.1591268688        2.7754085620        2.8907725496
 H          6.6379140983        4.4802236120        1.1737777794
 H          6.1811194087        4.0119770014       -1.2044977605
 H          5.2359179395        1.7920921310       -1.8593694403
 H          2.5810547897        0.6562773704        0.1396829396
 H          3.1475901810       -2.3677361797       -1.7553738999
 H          1.5475689316       -4.2558883502       -1.7339261997
 H         -0.5480872386       -4.0921861308       -0.4630258399
 H         -1.1591418997       -1.4551247006        2.0042541996
 C         -2.0593300790       -3.2823108110        1.4325572698
 C         -3.4938480390       -3.3485474915        1.8614047997
 C         -3.0682456887       -3.9763788615        0.5697741398
 H         -3.0335639283       -5.0546325715        0.5123296600
 H         -3.3528054888       -3.5008144818       -0.3556108703
 H         -3.7551848489       -3.9923863215        2.6876108798
 H         -4.0686557593       -2.4347464317        1.8197767295
 H         -1.3652861888       -3.9186859507        1.9736251300
