  62
        -98.94293466
 C         -1.5525601878       -0.8882749548        0.8623806230
 C         -2.3921645359       -0.2349476187       -0.0674031110
 C         -2.5984446809        1.2123831370        0.1343676230
 C         -1.9230869944        1.8367486461        1.1139331017
 C         -1.8985312199        3.3070792290        1.4334621938
 C         -0.7732666746        4.0152049071        0.6574034590
 C         -1.1859497313        4.5709104585       -0.7029579160
 H         -1.8938653944        5.3913215901       -0.5632881488
 H         -0.2879804307        4.9812903509       -1.1710132176
 C         -1.7970636136        3.5343566786       -1.6480648262
 H         -1.6992294325        3.9095496647       -2.6691232458
 H         -1.2156536413        2.6111563658       -1.5889462110
 C         -3.2785555202        3.2530541362       -1.3583254934
 H         -3.6606401400        4.0091228074       -0.6724189835
 H         -3.8530477028        3.3546440111       -2.2819339603
 C         -3.5794778043        1.8542541815       -0.8091725039
 H         -4.5616800728        1.8688348487       -0.3225600355
 H         -3.6566598095        1.1499613596       -1.6440099866
 H          0.0425539017        3.3026381625        0.5071849692
 H         -0.3889085410        4.8390175022        1.2629545731
 H         -2.8621841478        3.7647190830        1.2300354305
 H         -1.6919639858        3.3874333385        2.5029489580
 O         -1.0814070859        1.1764095055        1.9578290943
 C         -0.8739725938       -0.1860517520        1.8567050762
 O         -0.0751889187       -0.6506955772        2.6959110620
 H          0.9389329729       -1.0122487623        0.0679441233
 C          0.6560756621       -1.6643211660       -0.7455067158
 C         -0.4424662990       -2.5009427866       -0.5891772692
 C         -0.7799211426       -3.3553968839       -1.6288471904
 C         -0.0545837029       -3.3331499557       -2.8090014614
 C          0.9939786022       -2.4490641516       -2.9851399877
 C          1.3487331260       -1.6009721390       -1.9410286435
 N          2.3999719681       -0.6810096633       -2.0644226882
 S          2.3135932991        0.7808012210       -1.2494559412
 O          0.9581947592        1.2632622481       -1.1301393170
 O          3.2263149547        1.6435835450       -1.9732370868
 C          3.0159637981        0.4338851193        0.3481235784
 C          2.4716514288        1.0165087513        1.4739977050
 C          3.0497662385        0.7652034226        2.7078667041
 C          4.1609641398       -0.0580592140        2.7924700548
 C          4.7018366628       -0.6308288960        1.6509446697
 C          4.1279322344       -0.3827630038        0.4150755663
 H          4.5173218882       -0.8121017007       -0.4929060159
 H          5.5658659670       -1.2718573528        1.7218705026
 H          4.6050136013       -0.2556158860        3.7553855276
 H          2.6180887504        1.2028959593        3.5933626767
 H          1.5936849322        1.6358674765        1.3755490890
 H          2.7822105552       -0.5812223053       -2.9932725454
 H          1.5300237056       -2.4070296975       -3.9210166833
 H         -0.3282740280       -3.9973916489       -3.6147873345
 H         -1.6195940900       -4.0227324748       -1.5253780584
 C         -1.2206065464       -2.3636588645        0.6978756678
 H         -0.5522673423       -2.6186580567        1.5330524037
 C         -2.4562257367       -3.2317695615        0.7717488884
 C         -2.3344411644       -4.6694414355        1.1766869337
 C         -2.9512151750       -3.6764731239        2.1140594556
 H         -4.0168487295       -3.7161522143        2.2824247491
 H         -2.3839306217       -3.3675387217        2.9800819818
 H         -2.9789869843       -5.3948475728        0.7038797986
 H         -1.3480089020       -5.0405158799        1.4101158132
 H         -3.1981422732       -2.9683316005        0.0275914855
 O         -2.9511787366       -0.8275074888       -1.0288493698
