  62
        -98.94424811
 C         -1.9537550610       -0.8139818714        0.4262570830
 C         -2.2683471380        0.3474988417       -0.3202544293
 C         -3.6015419778        0.9172416401       -0.0810877690
 C         -4.4211756292        0.3588653890        0.8271133392
 C         -5.7965569140        0.8422788780        1.1989015616
 C         -6.9064787513        0.3536261858        0.2580295334
 C         -6.9264899189        1.0116796875       -1.1222073027
 H         -7.8741924310        0.7413048996       -1.5921820814
 H         -6.9188266312        2.0959974393       -1.0065081505
 C         -5.7776589721        0.5819299885       -2.0451648193
 H         -5.3264363936       -0.3361034685       -1.6618613730
 H         -6.1738521217        0.3538625241       -3.0372322992
 C         -4.6825861737        1.6331397970       -2.2256639100
 H         -5.0955366260        2.5098061302       -2.7297214006
 H         -3.9048358482        1.2112775793       -2.8672310874
 C         -4.0226157934        2.0880781755       -0.9173539017
 H         -3.1247221686        2.6594507030       -1.1656549938
 H         -4.7012387084        2.7313216268       -0.3575712844
 H         -7.8613736900        0.5579266970        0.7477791273
 H         -6.8165684818       -0.7291495788        0.1443579141
 H         -5.8043523263        1.9320096504        1.2378569282
 H         -6.0001173846        0.4574682801        2.2005822592
 O         -4.0685687550       -0.7368094740        1.5501237943
 C         -2.8433549416       -1.3515872577        1.3616511406
 O         -2.6618361557       -2.3569843205        2.0768649034
 O         -1.4941386355        0.8931541385       -1.1500474692
 C         -0.6169571696       -1.5273356341        0.2891105124
 C          0.4523484928       -0.6978085888        0.9572685125
 C          0.7608974932       -0.9141653662        2.2964169351
 C          1.7249372876       -0.1525736203        2.9322369047
 C          2.3973746497        0.8445376228        2.2472058708
 C          2.0876247047        1.0739973168        0.9136475903
 C          1.1308086720        0.2996471585        0.2727655179
 H          0.8852385732        0.5003394389       -0.7581960808
 N          2.7732974241        2.0873969387        0.2075997691
 S          4.4174742347        1.8341417913        0.0082782953
 O          5.0760522296        1.9977391798        1.2793141076
 O          4.8302508813        2.7316441024       -1.0465964932
 C          4.5359194508        0.1383998712       -0.5305473411
 C          4.6774613957       -0.8621465929        0.4097948559
 C          4.6731965386       -2.1816725285       -0.0129049540
 C          4.5278558752       -2.4762296475       -1.3595652871
 C          4.3908741416       -1.4591217189       -2.2918706453
 C          4.3869975436       -0.1381232801       -1.8749332362
 H          4.2853564012        0.6821347475       -2.5676258819
 H          4.2826961035       -1.6911415267       -3.3394611294
 H          4.5218898511       -3.5046189330       -1.6848924484
 H          4.7798890336       -2.9745439819        0.7098538276
 H          4.7925059670       -0.5921674699        1.4465447804
 H          2.3505298716        2.2899036691       -0.6877923732
 H          3.1585316663        1.4433462629        2.7210987616
 H          1.9543289002       -0.3349321196        3.9712263842
 H          0.2263415188       -1.6824761979        2.8372559037
 H         -0.7199737359       -2.4606942801        0.8577197671
 C         -0.2823406631       -1.8687899648       -1.1492251456
 C          0.8634451580       -2.7940521426       -1.4252615384
 C         -0.5441032271       -3.2535001928       -1.6563468771
 H         -0.8892107631       -3.3723143936       -2.6725627444
 H         -0.9693423797       -3.9675231585       -0.9661231393
 H          1.4897758592       -2.5973483795       -2.2814496279
 H          1.3958846067       -3.1919730652       -0.5748147428
 H         -0.4492697109       -1.0519223069       -1.8389718245
