  62
        -98.94492015
 C          1.9607382592        0.8510752501        0.0710808827
 C          2.2520640452       -0.1161498790        1.0602355543
 C          2.3464309670       -1.5048445374        0.5941553166
 C          2.1208812812       -1.7780377179       -0.7041434972
 C          2.2176533057       -3.1432188113       -1.3208934489
 C          3.6316826219       -3.4173733908       -1.8522528640
 C          4.7394994460       -3.1051539659       -0.8462306807
 H          5.6898099585       -3.3630978813       -1.3183304915
 H          4.7542822824       -2.0294274538       -0.6572332904
 C          4.6121181533       -3.8513551936        0.4891066067
 H          3.9399041424       -4.7024034431        0.3751731915
 H          5.5922343488       -4.2454100904        0.7654364062
 C          4.1362451051       -2.9846259965        1.6563960138
 H          4.2872957463       -3.5464546738        2.5819160023
 H          4.7496436634       -2.0822429820        1.7167881180
 C          2.6622882949       -2.5607705791        1.6161627077
 H          2.0275016604       -3.4376932000        1.4702669565
 H          2.4140429046       -2.1193498733        2.5861528680
 H          3.6908387425       -4.4660661327       -2.1488793330
 H          3.7914345141       -2.8020121160       -2.7405174897
 H          1.9441436374       -3.8897181519       -0.5774486975
 H          1.5073584834       -3.1930185308       -2.1481068771
 O          1.8268650610       -0.8244130418       -1.6240206008
 C          1.7257761905        0.5086739647       -1.2607537960
 O          1.4426927030        1.2785099005       -2.1992560269
 O          2.4231633760        0.1702317464        2.2778378262
 C          1.7940661725        2.3023083094        0.4830683957
 C          0.3940251310        2.7579719110        0.1503959626
 C          0.1022341083        3.9882455909       -0.4239541884
 C         -1.2043988541        4.3197079748       -0.7396901112
 C         -2.2389116357        3.4337790840       -0.5038146237
 C         -1.9590815013        2.2082197296        0.0913439963
 C         -0.6554307380        1.8922403426        0.4320065769
 H         -0.4512169923        0.9357764987        0.8925987957
 N         -2.9847268413        1.2865957662        0.3704813737
 S         -2.6234396208       -0.3591948433        0.2391929514
 O         -2.0108986445       -0.7985762481        1.4691034580
 O         -1.8884224778       -0.6236330878       -0.9773487860
 C         -4.2719524822       -1.0318636926        0.1272761535
 C         -5.0093479442       -1.1723952914        1.2879798199
 C         -6.3027344360       -1.6628746255        1.2044729115
 C         -6.8347014450       -2.0020508950       -0.0308953499
 C         -6.0822099054       -1.8572692454       -1.1866626436
 C         -4.7881771547       -1.3658820117       -1.1103147330
 H         -4.1619247625       -1.2425876209       -1.9795881599
 H         -6.4964838334       -2.1248247660       -2.1453265155
 H         -7.8411840254       -2.3844489240       -0.0932761130
 H         -6.8896310651       -1.7792506616        2.1011586384
 H         -4.5488153087       -0.9043893320        2.2244676987
 H         -3.8487017242        1.5112478374       -0.1049517477
 H         -3.2530095995        3.6839804399       -0.7759615027
 H         -1.4169629407        5.2754871846       -1.1942134079
 H          0.8990236205        4.6814813614       -0.6384803701
 H          1.9105621656        2.3124841560        1.5777346370
 C          2.8752751432        3.1651254383       -0.1331322398
 C          3.3596304111        4.3944493518        0.5745034758
 C          4.2343679753        3.1805332420        0.4978598562
 H          5.1010575260        3.2055046971       -0.1454208066
 H          4.3702696396        2.5881583691        1.3910832535
 H          3.6302755841        5.2562640116       -0.0165802598
 H          2.9088649967        4.6331517910        1.5258695320
 H          2.8250528067        3.1790860415       -1.2162276814
