  62
        -98.93978993
 C         -2.4946597162        0.9856137317        0.0496344380
 C         -3.6779043656        1.0573298383       -0.7232886662
 C         -4.8937132712        0.5497362456       -0.0783961494
 C         -4.8325530094        0.0718064392        1.1780791250
 C         -5.9898642712       -0.4616379752        1.9783711758
 C         -6.3163608732       -1.9348000726        1.6972814692
 C         -6.9797642386       -2.2078145014        0.3467792864
 H         -7.3482795803       -3.2352116602        0.3727830546
 H         -7.8449943919       -1.5546411213        0.2292654767
 C         -6.0455780264       -2.0501629884       -0.8610909914
 H         -6.1733314325       -2.9009939451       -1.5342818411
 H         -5.0067959569       -2.0648948258       -0.5223909563
 C         -6.2809813589       -0.7828445754       -1.6830820161
 H         -7.2735097844       -0.8200463097       -2.1374934536
 H         -5.5430932959       -0.7551757611       -2.4891209303
 C         -6.1580384951        0.5207635210       -0.8832059342
 H         -6.1217317828        1.3538665557       -1.5894351708
 H         -7.0252573297        0.6480164014       -0.2357849661
 H         -5.3955057204       -2.5175633015        1.7755105976
 H         -6.9924887557       -2.2747392463        2.4851590256
 H         -5.7101380513       -0.3660835633        3.0296679873
 H         -6.8743705071        0.1494901640        1.7967113251
 O         -3.6772937488        0.0363991854        1.8941934779
 C         -2.4788262591        0.4706057091        1.3457552780
 O         -1.4965094812        0.3549225940        2.1026307859
 O         -3.7150681485        1.5216872753       -1.8946751823
 C         -1.1906402770        1.4686775148       -0.5579430906
 C         -0.1947766154        0.3358275847       -0.6085737193
 C         -0.5867362506       -0.8741125330       -1.1763487920
 C          0.2875828567       -1.9410479892       -1.2430831643
 C          1.5749701846       -1.8270866999       -0.7478099189
 C          1.9819672383       -0.6220241747       -0.1938665047
 C          1.1016950718        0.4531975628       -0.1351539799
 H          1.4331865812        1.3828056303        0.3003893680
 N          3.2836974107       -0.4979580971        0.3208582719
 S          4.5449634427       -1.2060158287       -0.5503350807
 O          4.4049581737       -0.9064947697       -1.9578815769
 O          4.6103064993       -2.6052946001       -0.2094495420
 C          5.9511885835       -0.3506335606        0.1322458642
 C          6.4716606939        0.7386184749       -0.5405259396
 C          7.5502698220        1.4132098541        0.0095617342
 C          8.0848744156        0.9911608661        1.2175420996
 C          7.5513694072       -0.1039785476        1.8809629111
 C          6.4736612455       -0.7837979602        1.3361980088
 H          6.0323029765       -1.6443238643        1.8113130072
 H          7.9715851063       -0.4301431984        2.8186502438
 H          8.9246119187        1.5174234382        1.6432469478
 H          7.9690083255        2.2630290522       -0.5050405352
 H          6.0296831930        1.0255544782       -1.4812312024
 H          3.5029525704        0.4515239371        0.5890876714
 H          2.2676767081       -2.6521959327       -0.7911435216
 H         -0.0339204112       -2.8735819038       -1.6830493193
 H         -1.5925952115       -0.9672636346       -1.5636456663
 H         -1.4380740353        1.7496662524       -1.5927029467
 C         -0.6906442779        2.6967843044        0.1727693359
 C          0.1648663086        3.7024940568       -0.5369893476
 C         -1.2552909054        4.0352529169       -0.1938722655
 H         -1.4438799966        4.7484265635        0.5944422203
 H         -1.9833331794        4.0638940700       -0.9912946301
 H          0.9513430839        4.1938776027        0.0159621318
 H          0.4047334317        3.5121004703       -1.5722647471
 H         -0.4983633784        2.5059999107        1.2227680282
