  62
        -98.94076810
 C         -2.5210662200       -0.2993426326        0.0393652058
 C         -2.1630518930       -1.3229655828       -0.8647632523
 C         -1.4039924251       -2.4648526538       -0.3215327427
 C         -1.1247255565       -2.4863934073        0.9950771965
 C         -0.3287634976       -3.5020949790        1.7727379653
 C          1.1814876179       -3.3477460538        1.5540332973
 C          1.6074808357       -3.2831272736        0.0902598142
 H          1.1918134986       -2.3805447304       -0.3626044117
 H          2.6954301434       -3.1693405468        0.0691598021
 C          1.2480369854       -4.5054452273       -0.7533093490
 H          1.6520459920       -5.4006519395       -0.2755064536
 H          1.7523335482       -4.3840411073       -1.7151321245
 C         -0.2429171914       -4.7257432361       -1.0325178256
 H         -0.3159776354       -5.3925435516       -1.8964310214
 H         -0.7351417932       -5.2351220576       -0.2077210544
 C         -1.0137013386       -3.4591377505       -1.3882648890
 H         -0.4529479682       -2.8926254647       -2.1417262757
 H         -1.9524356471       -3.7418697619       -1.8797589254
 H          1.6873857140       -4.1789681052        2.0498310381
 H          1.4983920310       -2.4152496101        2.0287546851
 H         -0.5464313243       -3.3230136294        2.8282679370
 H         -0.6506170050       -4.5103779801        1.5303763647
 O         -1.5406052098       -1.5007507293        1.8416831436
 C         -2.1821087926       -0.3655400152        1.3900268829
 O         -2.4184882914        0.4821531211        2.2738284743
 H         -0.5435535100        0.8677505657       -1.0058788240
 C         -0.8101608326        1.8264697711       -0.5855827947
 C         -2.1386432422        2.0955015528       -0.2826094132
 C         -2.4588766878        3.3458441570        0.2286390848
 C         -1.4616857895        4.2777078233        0.4658406814
 C         -0.1330941242        3.9783747745        0.2256652424
 C          0.1939517152        2.7357205047       -0.3060313937
 N          1.5270506255        2.3687179548       -0.5691826560
 S          1.9261096394        0.7467514228       -0.2801107202
 O          1.6012204349       -0.0228659829       -1.4552143939
 O          1.3503266114        0.3050971398        0.9687983848
 C          3.6987130280        0.8748222672       -0.1306944636
 C          4.2650303288        0.9814771641        1.1254185480
 C          5.6406679801        1.1144987123        1.2319435902
 C          6.4218453690        1.1414921067        0.0863506918
 C          5.8392434497        1.0320605188       -1.1676600531
 C          4.4645842614        0.8973304238       -1.2808651341
 H          3.9664185272        0.7991825714       -2.2312299913
 H          6.4498063811        1.0502130411       -2.0558791798
 H          7.4919049505        1.2454808253        0.1718961838
 H          6.0959853568        1.1958401890        2.2057610046
 H          3.6172312883        0.9466325434        1.9869962740
 H          2.1956585701        2.9940877298       -0.1393698234
 H          0.6435163140        4.6941081645        0.4487847315
 H         -1.7222672950        5.2442806505        0.8699594420
 H         -3.4845063895        3.5846686936        0.4583630119
 C         -3.1356845299        0.9813937783       -0.4985875550
 H         -3.2507305901        0.8209803937       -1.5814119170
 C         -4.4949881487        1.2513090466        0.1074436081
 C         -5.5196919573        2.0322218362       -0.6587004979
 C         -5.6935617132        0.5569166501       -0.4640455323
 H         -6.4590746650        0.2099623266        0.2134148082
 H         -5.5301882347       -0.0953704462       -1.3096031676
 H         -6.1714996111        2.6991293404       -0.1149565133
 H         -5.2467943331        2.3835947212       -1.6422935371
 H         -4.4518168421        1.3735234752        1.1836573930
 O         -2.4517340683       -1.2822156849       -2.0940463691
