  62
        -98.93833193
 C         -1.7517331019       -1.4546662157       -0.1203118525
 C         -2.8670274355       -0.7888256525        0.4377414077
 C         -3.2946583726        0.4353515986       -0.2445163491
 C         -2.6289983882        0.8558301936       -1.3357751336
 C         -2.9344671365        2.0925594743       -2.1357091952
 C         -2.3012819267        3.3621473502       -1.5495498310
 C         -2.9834341989        3.9028365619       -0.2921974344
 H         -2.5985383296        4.9113009743       -0.1275812343
 H         -4.0575908392        3.9854983822       -0.4647802977
 C         -2.7219244240        3.0684146850        0.9696014486
 H         -2.4703368918        3.7343584983        1.7994153226
 H         -1.8494411928        2.4305874384        0.8047788121
 C         -3.9041154364        2.2092109456        1.4203302596
 H         -3.5926378240        1.6319278343        2.2951623778
 H         -4.7313970748        2.8562238927        1.7221616014
 C         -4.4163716288        1.2245380782        0.3611041176
 H         -5.0938806572        0.5194582003        0.8498654479
 H         -4.9660153106        1.7592255532       -0.4132150785
 H         -1.2514679074        3.1549790786       -1.3251428491
 H         -2.3363358185        4.1353323665       -2.3209017971
 H         -4.0136346022        2.2242906410       -2.2210565266
 H         -2.5212856700        1.9293698471       -3.1333223354
 O         -1.5788490600        0.1751375312       -1.8576991865
 C         -1.0767429736       -0.9571721040       -1.2366543904
 O         -0.0578293770       -1.4239173195       -1.7780396552
 O         -3.4694945206       -1.1958525194        1.4709645433
 C         -1.1992183028       -2.6825003986        0.5997854724
 C          0.2654909926       -2.4147867463        0.8477444209
 C          1.3682008401       -3.1471761760        0.4292954641
 C          2.6559014072       -2.6781251061        0.6415374687
 C          2.8823117370       -1.4540475081        1.2403761864
 C          1.7892006978       -0.7197870283        1.6794125050
 C          0.5115994563       -1.2179442795        1.5205627757
 H         -0.3281476851       -0.6240213034        1.8626976532
 N          1.9986515010        0.5986723495        2.1840573894
 S          1.7329395203        1.7152154026        0.9374915986
 O          1.9524137989        3.0196856882        1.5273937356
 O          0.4364466607        1.5281329053        0.3230441482
 C          3.0416236043        1.3214044621       -0.1956432588
 C          2.8069716502        0.4350602711       -1.2281388766
 C          3.8610170448        0.0976692562       -2.0639060189
 C          5.1171315062        0.6453332337       -1.8536415848
 C          5.3334112755        1.5349501724       -0.8114443042
 C          4.2870694605        1.8752804564        0.0300138036
 H          4.4024064135        2.5613092794        0.8529940326
 H          6.3113616680        1.9594016125       -0.6511210229
 H          5.9320746328        0.3757646959       -2.5068627982
 H          3.6886650434       -0.5973158716       -2.8699844269
 H          1.8203134557        0.0176782120       -1.3654002983
 H          1.3645097783        0.8291101272        2.9388662001
 H          3.8770141982       -1.0577534968        1.3628508816
 H          3.4935287324       -3.2659771641        0.2992286466
 H          1.2491546466       -4.0766074046       -0.0968190174
 H         -1.6981826936       -2.6721023275        1.5844276980
 C         -1.6963015041       -3.9366920597       -0.0997884081
 C         -1.0588820987       -4.5705808713       -1.2961230703
 C         -1.0842210811       -5.3002000796        0.0155721227
 H         -1.7565092993       -6.1405183647        0.1085175557
 H         -0.1733430894       -5.4143938028        0.5793974823
 H         -1.7112609188       -4.9183336129       -2.0843055813
 H         -0.1406215368       -4.1426985486       -1.6633164483
 H         -2.7843169353       -3.9144661422       -0.1100182850
