  62
        -98.94640015
 C         -1.6116694082       -1.3942934202       -0.0724393716
 C         -2.6918853886       -0.9046660908        0.6970072782
 C         -3.2967278193        0.3457579787        0.2225826480
 C         -2.8079485096        0.9487985689       -0.8768889820
 C         -3.3236579004        2.2242028785       -1.4878350823
 C         -2.7801869613        3.5016821389       -0.8325945824
 C         -3.3403597216        3.8134813088        0.5554883875
 H         -3.0467200923        4.8367560990        0.7981212174
 H         -4.4299218016        3.7869948380        0.5237085774
 C         -2.8326158311        2.8795311892        1.6630623777
 H         -1.9427218307        2.3503227498        1.3128744578
 H         -2.5315245416        3.4710042896        2.5309365576
 C         -3.8592900805        1.8544296587        2.1445568177
 H         -4.6984012209        2.3701971382        2.6166502176
 H         -3.3863047702        1.2219733491        2.9005373979
 C         -4.4044950098        0.9432185181        1.0371456878
 H         -4.9505314593        0.1221554779        1.5084258079
 H         -5.0912513101        1.4978643776        0.3981362677
 H         -1.6920659112        3.4307579396       -0.7700748123
 H         -3.0234824518        4.3362066687       -1.4942335125
 H         -3.0127285103        2.2140556685       -2.5345484722
 H         -4.4134236304        2.2331586678       -1.4510329324
 O         -1.7719147192        0.4397385895       -1.5946289619
 C         -1.1421992885       -0.7359953401       -1.2107266916
 O         -0.2033056582       -1.0825381796       -1.9479269115
 O         -3.1252533383       -1.4789496509        1.7330129783
 C         -0.8995457974       -2.6602963897        0.3666584387
 C          0.5721361724       -2.3801277187        0.5478898787
 C          1.5738087630       -3.2311872281        0.1005112790
 C          2.9071535928       -2.8935243072        0.2612759790
 C          3.2718245619       -1.7056258869        0.8672128689
 C          2.2773528613       -0.8531599175        1.3293407987
 C          0.9447958216       -1.1996654184        1.1794369186
 H          0.1747284711       -0.5289324088        1.5417214084
 N          2.6331667605        0.3717424028        1.9339100285
 S          3.5150380699        1.4339768633        0.9809088085
 O          4.8633205802        0.9401353941        0.8599533387
 O          3.3646167190        2.7247289133        1.6151932683
 C          2.7155800600        1.4276695825       -0.6115778216
 C          1.6175513095        2.2426110518       -0.8015171318
 C          0.9677232397        2.2152634812       -2.0239644319
 C          1.4127987103        1.3650665713       -3.0233912917
 C          2.5126772308        0.5494957021       -2.8149037115
 C          3.1738961307        0.5792422427       -1.5984558614
 H          4.0360429911       -0.0359255067       -1.3998408113
 H          2.8487967713       -0.1172873178       -3.5921250414
 H          0.8921962704        1.3326535509       -3.9670620417
 H          0.1091282493        2.8454761306       -2.1942753020
 H          1.3025015890        2.8912577117        0.0016449681
 H          1.8408805201        0.8602042124        2.3271211784
 H          4.3042834617       -1.4168188762        0.9806489890
 H          3.6738472232       -3.5629622668       -0.0979992508
 H          1.3115371236       -4.1564771783       -0.3854809209
 H         -1.3299115773       -2.9192685198        1.3457661986
 C         -1.1825017666       -3.7890327900       -0.6027795712
 C         -1.2240296457       -5.2088365600       -0.1244412910
 C         -2.4925345461       -4.5100718108       -0.5087536712
 H         -2.9882219558       -4.8012282513       -1.4226461712
 H         -3.1696155764       -4.2057343012        0.2761056987
 H         -0.8508828251       -5.9843328398       -0.7762912409
 H         -1.0443245657       -5.3897450897        0.9245889890
 H         -0.7899955066       -3.5911241199       -1.5938998012
