  62
        -98.93703772
 C         -1.8169476000       -0.6159988000        1.0937968902
 C         -3.0460957298       -1.0351201907        0.5264320805
 C         -4.0562753301        0.0221110189        0.3393698397
 C         -3.7682292205        1.2903016792        0.6793341390
 C         -4.6805293908        2.4646238788        0.4768171182
 C         -4.4396630109        3.1279004980       -0.8865515522
 C         -4.4131543706        2.1443223373       -2.0565816216
 H         -4.2678994107        2.7273884468       -2.9686957519
 H         -3.5444798104        1.4897460276       -1.9534677311
 C         -5.6792761303        1.2872931869       -2.1939995311
 H         -6.4980506905        1.7433869270       -1.6361927614
 H         -5.9757515603        1.2664303362       -3.2449084611
 C         -5.5119403900       -0.1668892028       -1.7494841402
 H         -4.6363646098       -0.6008716129       -2.2390113999
 H         -6.3866363298       -0.7286443932       -2.0882436199
 C         -5.3807973900       -0.3921922818       -0.2378895601
 H         -5.4640799897       -1.4678204817       -0.0560341894
 H         -6.2007993701        0.1084805683        0.2809868796
 H         -3.4790651810        3.6472617283       -0.8550460725
 H         -5.2219114411        3.8710073877       -1.0519816227
 H         -5.7141562007        2.1327414586        0.5530977384
 H         -4.4837242310        3.1933292894        1.2650342577
 O         -2.5733852206        1.6573864999        1.2085791988
 C         -1.5749638203        0.7213493003        1.4210355394
 O         -0.5286643605        1.1930183808        1.9066543492
 O         -3.3097157695       -2.2156604910        0.1849348712
 C         -0.6517667497       -1.5558547095        1.3599948209
 C          0.2818255403       -1.5825947700        0.1762755209
 C         -0.2071984496       -1.7161186510       -1.1191929890
 C          0.6546384405       -1.7145382114       -2.2010850390
 C          2.0201445804       -1.5882003309       -2.0140927090
 C          2.5192980704       -1.4555479800       -0.7254978090
 C          1.6509604003       -1.4519231695        0.3599737309
 H          2.0446383302       -1.3287168688        1.3600292809
 N          3.9130426303       -1.3315394195       -0.5422359190
 S          4.6462240300        0.0775059204       -1.0779426699
 O          4.2094462499        0.3449198194       -2.4232013301
 O          6.0640101400       -0.1177126191       -0.8844359597
 C          4.0587889796        1.3385472009        0.0384426193
 C          2.7415235695        1.7437491405       -0.0522650010
 C          2.2570528492        2.6567702710        0.8707856384
 C          3.0975578790        3.1519943718        1.8562265781
 C          4.4203695091        2.7422301722        1.9285913984
 C          4.9061506794        1.8183114918        1.0176124490
 H          5.9235543595        1.4623113621        1.0413917093
 H          5.0694007490        3.1325354729        2.6960657682
 H          2.7120496888        3.8583518321        2.5744554977
 H          1.2201685791        2.9499368407        0.8369010182
 H          2.1127098696        1.3417158199       -0.8310273908
 H          4.2112026403       -1.5139190688        0.4063223311
 H          2.7030220205       -1.5706461412       -2.8473175490
 H          0.2602090406       -1.8174938221       -3.2008738989
 H         -1.2710263595       -1.8258559013       -1.2683936190
 H         -0.1006696199       -1.1042040589        2.2005510706
 C         -1.0828430194       -2.9475813194        1.8008714117
 C         -0.9648429090       -4.1617461999        0.9351272125
 C         -0.0486230391       -3.9904466589        2.1069803424
 H         -0.1888192790       -4.6191381284        2.9731288028
 H          0.9826340109       -3.7467055288        1.8997004823
 H         -1.7560593588       -4.8933918601        0.9911294629
 H         -0.5537683290       -4.0449885704       -0.0553298276
 H         -1.9443882394       -2.9117379492        2.4592073817
