  62
        -98.94721812
 C         -1.3163187015       -1.6856814794       -0.4705010989
 C         -1.1975786911       -0.3871984097       -1.0262223696
 C         -2.3663147606        0.4914090210       -0.8627890496
 C         -3.4491005105        0.0475171018       -0.2016914690
 C         -4.6880735900        0.8511432626        0.0668888910
 C         -4.6088135092        1.5759217132        1.4170069806
 C         -3.3123168687        2.3586702327        1.6264659898
 H         -2.4734009090        1.6622113923        1.7077113098
 H         -3.3924383181        2.8696701532        2.5888982295
 C         -3.0037887586        3.3846655620        0.5275941991
 H         -2.6731535780        4.3116795821        1.0011961785
 H         -3.9094992787        3.6121350922       -0.0365518907
 C         -1.8933439392        2.9542593610       -0.4327574711
 H         -1.0399453491        2.5935545708        0.1478561788
 H         -1.5693524390        3.8337168805       -0.9962781416
 C         -2.2727652401        1.8710834206       -1.4503365304
 H         -1.4763865304        1.8249733798       -2.1988885207
 H         -3.2043574901        2.1430438208       -1.9513832502
 H         -4.6924034692        0.8345688437        2.2151088411
 H         -5.4602173788        2.2551315637        1.4935118006
 H         -5.5405841204        0.1695971930        0.0821130617
 H         -4.8264405200        1.5723740023       -0.7362182593
 O         -3.5244294910       -1.1983474878        0.3321634117
 C         -2.4654466714       -2.0812164084        0.2209670317
 O         -2.6686578318       -3.1877291281        0.7630481224
 O         -0.1853162411        0.0406995495       -1.6426278202
 C         -0.2196137720       -2.7387715699       -0.5405055488
 C          0.8067595985       -2.5177840999        0.5443415107
 C          1.1426087283       -3.5257228296        1.4403255811
 C          2.0766679188       -3.2963324696        2.4355132506
 C          2.6773061195       -2.0569483698        2.5672049998
 C          2.3463727396       -1.0433882201        1.6748627494
 C          1.4336799191       -1.2862925201        0.6604859499
 H          1.1819342493       -0.4966362404       -0.0265712805
 N          2.9369903303        0.2255208697        1.7604824685
 S          2.0536961708        1.5949814699        1.3709978781
 O          2.7014950216        2.6627062800        2.1085963174
 O          0.6464978508        1.4206098508        1.6510769788
 C          2.3338528903        1.8806415389       -0.3647868021
 C          3.1433482296        1.0521211781       -1.1126435420
 C          3.3308761193        1.3386076573       -2.4559385822
 C          2.7147385496        2.4410712973       -3.0246949025
 C          1.9143134703        3.2708478081       -2.2559076227
 C          1.7246698907        2.9911828189       -0.9132123224
 H          1.1108049212        3.6119014495       -0.2800998225
 H          1.4338168606        4.1296750181       -2.6970337029
 H          2.8564538993        2.6541754667       -4.0726785327
 H          3.9529618987        0.6930712867       -3.0553670021
 H          3.6050345194        0.1941190481       -0.6523455217
 H          3.5293252707        0.3781186198        2.5630252082
 H          3.3921157598       -1.8719792697        3.3546617294
 H          2.3298302387       -4.0864912293        3.1261802210
 H          0.6541598778       -4.4861940994        1.3648564218
 H         -0.7157983525       -3.6987253796       -0.3419928481
 C          0.4535252574       -2.8171885410       -1.8978007190
 C          1.1411342066       -4.0867125715       -2.2967673486
 C         -0.1409098934       -3.6869131112       -2.9624402583
 H         -0.1099998336       -3.3421131518       -3.9849071885
 H         -1.0377956636       -4.2366115406       -2.7150760077
 H          2.0568817665       -4.0194894323       -2.8633977190
 H          1.1132985865       -4.9121584811       -1.6016242282
 H          0.8965495578       -1.8804668113       -2.2084961196
