  62
        -98.94035502
 C         -2.1830405708       -0.7084448004        0.1770100500
 C         -3.0099145409       -0.0510049200        1.1228807596
 C         -3.8375361606        1.0488952700        0.6104834292
 C         -3.7209370003        1.4102898396       -0.6801129509
 C         -4.5431541401        2.4705014295       -1.3521074713
 C         -5.8136996900        1.8739949895       -1.9741675414
 C         -6.6041789403        0.9742340299       -1.0240564213
 H         -7.4936148803        0.6368567698       -1.5604419214
 H         -6.0105769205        0.0855100899       -0.7974299110
 C         -7.0246010105        1.6499883503        0.2886598584
 H         -8.0686560006        1.4023933104        0.4914414283
 H         -6.9633869703        2.7338008002        0.1837832782
 C         -6.2181550108        1.2139170505        1.5134297587
 H         -6.7307532209        1.5805549808        2.4067545385
 H         -6.2013886009        0.1224767405        1.5720096790
 C         -4.7722983407        1.7223911103        1.5753672288
 H         -4.7568870706        2.8052573903        1.4349803786
 H         -4.3837212609        1.4999729505        2.5737338590
 H         -6.4489441599        2.6939034595       -2.3139904917
 H         -5.5267711299        1.2820825793       -2.8463754312
 H         -3.9410668199        2.9239740493       -2.1411994813
 H         -4.8066748601        3.2354349897       -0.6241242816
 O         -2.8581342102        0.8115171493       -1.5379674505
 C         -2.0706004904       -0.2635827907       -1.1416175701
 O         -1.3331334203       -0.7034503810       -2.0411870499
 O         -3.0492973511       -0.3672711097        2.3429715897
 C         -1.3404812410       -1.8715925303        0.6684059704
 C          0.0921688991       -1.7058293106        0.2265510607
 C          0.7797463992       -2.6392834609       -0.5363787189
 C          2.0972169692       -2.4143650812       -0.8968286288
 C          2.7549519893       -1.2623871511       -0.5087203989
 C          2.0787566093       -0.3234681409        0.2598188707
 C          0.7626521792       -0.5555629506        0.6264099505
 H          0.2348859592        0.1778190396        1.2253854302
 N          2.7341665593        0.8588739392        0.6470836705
 S          4.2402928892        0.7319242992        1.3779015808
 O          4.3806715989       -0.5193834707        2.0861328012
 O          4.3784821892        1.9360519494        2.1682708206
 C          5.3867208895        0.7980941687        0.0176693810
 C          6.3059700494       -0.2170333315       -0.1606156085
 C          7.1943526596       -0.1372247719       -1.2218986984
 C          7.1485332299        0.9506833579       -2.0800898587
 C          6.2210565500        1.9634675581       -1.8851918891
 C          5.3309680298        1.8902512085       -0.8258125592
 H          4.5975473198        2.6566580186       -0.6376542896
 H          6.1882345302        2.8079974479       -2.5545910693
 H          7.8396635701        1.0102768376       -2.9059929885
 H          7.9165541895       -0.9229602720       -1.3750377480
 H          6.3012861891       -1.0457998013        0.5292966817
 H          2.1453796693        1.5020407794        1.1559808202
 H          3.7779295594       -1.0812548713       -0.7954812688
 H          2.6172769893       -3.1454145414       -1.4968931385
 H          0.2789844191       -3.5337192109       -0.8679970288
 H         -1.3620715012       -1.7752610100        1.7677206504
 C         -1.9199393611       -3.2413559503        0.3480379507
 C         -3.3952685611       -3.4301141902        0.1626203105
 C         -2.4677121809       -3.5882561406       -1.0026652193
 H         -2.2937531909       -4.5836224108       -1.3846542290
 H         -2.4525484106       -2.8208644008       -1.7601985595
 H         -3.8568243213       -4.3121531201        0.5806318106
 H         -4.0208929310       -2.5500086601        0.2026138201
 H         -1.4005460313       -4.0326209303        0.8801816910
