  62
        -98.94609439
 C          1.4128644895        0.8599906838       -0.0916671630
 C          2.4938218252        0.8512746974        0.8278184699
 C          3.4446097236       -0.2609608165        0.7173479050
 C          3.2329688516       -1.2114500169       -0.2108730807
 C          4.1383778969       -2.3813353800       -0.4645135220
 C          5.1927156628       -2.0499874589       -1.5298952358
 C          5.9246967441       -0.7306797329       -1.2835560124
 H          6.6636718901       -0.6153871495       -2.0793436083
 H          5.2144162303        0.0933717156       -1.3815747339
 C          6.6228617522       -0.6374497957        0.0803526737
 H          6.7414666668       -1.6350590288        0.5047336247
 H          7.6237869962       -0.2260735829       -0.0659637961
 C          5.9147515159        0.2629686033        1.0943772237
 H          5.7092346345        1.2353819638        0.6399918002
 H          6.5954853024        0.4309122350        1.9331610430
 C          4.6038846862       -0.2842199376        1.6735801875
 H          4.7641232941       -1.2936005714        2.0587965646
 H          4.3143706710        0.3599033736        2.5091800706
 H          5.9143286452       -2.8681322151       -1.5671796919
 H          4.6956000176       -1.9906265728       -2.5008870352
 H          4.6238365215       -2.6652594702        0.4674387821
 H          3.5282455048       -3.2166743947       -0.8133177731
 O          2.1807898552       -1.1840550473       -1.0638860563
 C          1.2436336819       -0.1586993536       -1.0309171756
 O          0.3457464335       -0.2860343641       -1.8853888978
 H         -0.7944480481       -0.3910146942        0.4839639743
 C         -1.2327297019        0.4111447031        1.0556314397
 C         -0.7138146683        1.6931903814        0.9676542199
 C         -1.2864474133        2.6983980101        1.7404164460
 C         -2.3505697106        2.4227568145        2.5785800800
 C         -2.8715712165        1.1435485179        2.6562212474
 C         -2.3047000608        0.1300723455        1.8922646440
 N         -2.7951190671       -1.1812220335        1.9698254826
 S         -2.8880515393       -2.1366078343        0.5982058571
 O         -3.8139147322       -3.1865503563        0.9709104127
 O         -1.5739017304       -2.5719760908        0.2005192710
 C         -3.6475195531       -1.0836142091       -0.6239375493
 C         -4.9994739653       -0.8332434558       -0.4777277924
 C         -5.6253941057        0.0245193899       -1.3658194693
 C         -4.8901399549        0.6204727153       -2.3798984002
 C         -3.5371183481        0.3550777558       -2.5145056353
 C         -2.9022903951       -0.5048325282       -1.6296821128
 H         -1.8482216689       -0.7200413006       -1.7152022591
 H         -2.9610048432        0.8127988412       -3.3032997082
 H         -5.3738940738        1.2928786277       -3.0707667306
 H         -6.6793348533        0.2275638920       -1.2652486257
 H         -5.5360038761       -1.3280930056        0.3156229786
 H         -3.6142157246       -1.2913671842        2.5496132013
 H         -3.7004808988        0.9244680652        3.3114660279
 H         -2.7810681576        3.2104782818        3.1774541051
 H         -0.8814896588        3.6975626746        1.6927832834
 C          0.4355971890        2.0125012205        0.0372940527
 H          1.0109865965        2.8285368345        0.4977138695
 C         -0.1168756705        2.5041337493       -1.2876543623
 C         -0.4636101731        3.9508713281       -1.4631064738
 C          0.7304932845        3.3760897550       -2.1629934946
 H          0.6902182314        3.2252489379       -3.2310514845
 H          1.7123523629        3.6425248663       -1.7989371132
 H         -1.3330562541        4.2017110224       -2.0505177581
 H         -0.2841815812        4.6190907787       -0.6350626170
 H         -0.7457099248        1.7738924166       -1.7794578474
 O          2.6567899889        1.7462219098        1.7016253255
