  62
        -98.93704947
 C         -1.5617812285       -1.4533066759       -0.6973855895
 C         -1.4360293615       -0.0412638607       -0.6471197702
 C         -2.6966854975        0.7125142629       -0.5272665318
 C         -3.8684180409        0.0558295244       -0.4978693544
 C         -5.2125229738        0.6993171271       -0.3209322673
 C         -5.5972113230        0.7810527817        1.1631185019
 C         -4.4975909829        1.3548992530        2.0570746136
 H         -4.8929586222        1.3900551285        3.0747248918
 H         -3.6499096300        0.6657537440        2.0663672038
 C         -4.0106756145        2.7522954279        1.6486921752
 H         -3.9344808539        3.3709934384        2.5454398077
 H         -4.7449220522        3.2220641408        0.9931878140
 C         -2.6386329055        2.7750684215        0.9718252611
 H         -2.3049617677        3.8147178724        0.9221758975
 H         -1.9183616508        2.2261837169        1.5835273846
 C         -2.5893721643        2.2099017757       -0.4528526098
 H         -3.3621267930        2.6814870276       -1.0629272016
 H         -1.6115092499        2.4587849102       -0.8749034146
 H         -5.8332426591       -0.2259211589        1.5154018682
 H         -6.4978452017        1.3912967412        1.2533068943
 H         -5.1928099076        1.6961210899       -0.7571552461
 H         -5.9550633279        0.0968665354       -0.8469190974
 O         -3.9538557125       -1.2969007812       -0.5776427103
 C         -2.8146415001       -2.0760787453       -0.6624166936
 O         -3.0457377091       -3.3028415738       -0.7052024999
 H          1.5857472835       -0.5039273595       -0.2105792783
 C          1.4636851776       -1.2417672098        0.5603102936
 C          0.5265616664       -2.2544226772        0.4209124705
 C          0.3714384012       -3.1557959262        1.4732299169
 C          1.1297188219       -3.0475995979        2.6234267942
 C          2.0702881315       -2.0409908017        2.7505818858
 C          2.2306722537       -1.1315500129        1.7127727382
 N          3.1428686386       -0.0750062274        1.8213791823
 S          3.9401040086        0.5082740942        0.4737144984
 O          4.2660850792       -0.5575473567       -0.4459537783
 O          5.0723889732        1.2298551326        1.0201625671
 C          2.8268803155        1.6765881794       -0.2732196523
 C          2.0858483350        2.5067359150        0.5420475766
 C          1.2437521740        3.4373479144       -0.0419544087
 C          1.1621848836        3.5261934349       -1.4223946167
 C          1.9174530669        2.6889342812       -2.2268587373
 C          2.7602194173        1.7535204116       -1.6491283361
 H          3.3511169388        1.0698297260       -2.2388299351
 H          1.8444529774        2.7513180437       -3.3012267144
 H          0.4985455074        4.2465821503       -1.8753785146
 H          0.6445968757        4.0826293066        0.5806739642
 H          2.1649887639        2.4035156211        1.6116722147
 H          3.7261501637       -0.0812368326        2.6445010940
 H          2.6677945826       -1.9543713897        3.6454876055
 H          0.9924693434       -3.7565994726        3.4259829347
 H         -0.3635905201       -3.9437786873        1.3839592561
 C         -0.3720127502       -2.4076697493       -0.7812322212
 H         -0.8311270489       -3.4034317958       -0.6883964842
 C          0.2812969250       -2.4081820857       -2.1614857484
 C          0.9465624586       -1.2359310229       -2.8168326523
 C          1.7617881562       -2.4221178696       -2.4024316597
 H          2.1414359787       -3.0761478646       -3.1742157061
 H          2.4298695453       -2.3086812450       -1.5620159547
 H          0.7598856673       -1.0828870160       -3.8708969697
 H          1.0324614671       -0.3185998063       -2.2586529404
 H         -0.3037002166       -3.0261429429       -2.8391285566
 O         -0.3512922124        0.5882297993       -0.6970662696
