  62
        -98.93848852
 C         -2.5628598175       -1.1813820707        0.2067291086
 C         -2.6629379559       -0.3235353861       -0.9129945264
 C         -3.4977783405        0.8802568038       -0.7443087119
 C         -4.1043982121        1.1067394520        0.4359220740
 C         -5.0360964089        2.2157014287        0.8791503959
 C         -5.1524518592        3.5071594196        0.0732308323
 C         -3.8916380262        4.3708566376        0.0587509801
 H         -4.0609403140        5.2092818888       -0.6202947851
 H         -3.7387733693        4.7801453523        1.0607117648
 C         -2.6050715925        3.6558422011       -0.3475322773
 H         -2.3677964449        2.8827931244        0.3868581895
 H         -1.7926108863        4.3870337270       -0.3162419388
 C         -2.6146479843        3.0308329852       -1.7414880804
 H         -2.8855778052        3.7869549504       -2.4806783117
 H         -1.5960621065        2.6980493277       -1.9591441082
 C         -3.5431688978        1.8163624008       -1.9171640766
 H         -4.5648484063        2.1240260530       -2.1256925638
 H         -3.1886387136        1.2436413837       -2.7789793166
 H         -5.9477439409        4.0936394014        0.5413746490
 H         -5.4766239012        3.2908038955       -0.9403241007
 H         -6.0302452177        1.7600516444        0.9464844053
 H         -4.7401232775        2.4593556870        1.9046038328
 O         -3.9784141869        0.2440716690        1.4886308324
 C         -3.2023102937       -0.8991359820        1.4106180265
 O         -3.1570321655       -1.5645534229        2.4664463322
 H         -0.2872921902       -0.3940333710        1.0968927755
 C          0.2979014236       -0.9692172187        0.3883621131
 C         -0.2829768029       -2.0693472488       -0.2303770851
 C          0.4872659500       -2.8080474485       -1.1189479669
 C          1.7924104490       -2.4364010189       -1.3927815274
 C          2.3569317500       -1.3262432818       -0.7927975659
 C          1.6006475167       -0.5876811775        0.1080200610
 N          2.1597203875        0.5510679327        0.7156368237
 S          3.6442497854        0.3860172671        1.4837114686
 O          3.8344438661       -0.9561829132        1.9835329045
 O          3.6820025041        1.4485240830        2.4651564906
 C          4.8303674523        0.7360562062        0.2032795115
 C          4.7134965335        1.9286689764       -0.4834581892
 C          5.6343150304        2.2212568203       -1.4767065700
 C          6.6524353582        1.3234482096       -1.7619943509
 C          6.7581557918        0.1321460083       -1.0607111482
 C          5.8391350684       -0.1676558631       -0.0669880119
 H          5.8771592898       -1.0841646612        0.4998486802
 H          7.5505354154       -0.5640316568       -1.2838430978
 H          7.3675527391        1.5540188113       -2.5357749762
 H          5.5547311436        3.1463799825       -2.0245905327
 H          3.9095600009        2.5993420296       -0.2294632440
 H          1.5120931600        1.0533355417        1.3054613960
 H          3.3692610648       -1.0280634661       -1.0115583881
 H          2.3768725262       -3.0174445737       -2.0896267127
 H          0.0641527648       -3.6740962041       -1.6007302915
 C         -1.7056899342       -2.4301401650        0.1268298657
 H         -1.7007136315       -2.8620045606        1.1392406875
 C         -2.3302934727       -3.4294532310       -0.8254796730
 C         -2.1649375470       -4.9010257128       -0.5971833759
 C         -3.4907987559       -4.2485256028       -0.3491598009
 H         -4.3010742179       -4.4442445139       -1.0352117168
 H         -3.8100806764       -4.1052340822        0.6733265238
 H         -1.5872036597       -5.2132456368        0.2598344019
 H         -2.0683756026       -5.5487595949       -1.4554816783
 H         -2.3586435430       -3.0665462202       -1.8463690041
 O         -2.0848274462       -0.5480189488       -2.0072922486
