  62
        -98.94125946
 C          1.6581659291        0.2724249097        0.2439011606
 C          2.8004126692        0.9992847798       -0.1720369591
 C          3.9117169193        0.1944098899       -0.6993167591
 C          3.7873889593       -1.1394057201       -0.8125432294
 C          4.8216058994       -2.0851593000       -1.3599227194
 C          5.8777751193       -2.5175498601       -0.3335348793
 C          6.8968139392       -1.4418648902        0.0447009111
 H          7.6979102391       -1.9390993003        0.5953189111
 H          7.3362217693       -1.0241121300       -0.8616927088
 C          6.3300561790       -0.3102356904        0.9134695512
 H          7.0142125189       -0.1086470705        1.7408901614
 H          5.3818752089       -0.6281398105        1.3530978410
 C          6.1134677091        1.0095083598        0.1729807614
 H          5.6740939790        1.7261039796        0.8715873415
 H          7.0760319992        1.4074293799       -0.1561364683
 C          5.1858239393        0.9051087600       -1.0444928487
 H          4.9261795893        1.9166735601       -1.3658019486
 H          5.6954365295        0.3981355702       -1.8634450188
 H          6.4185370493       -3.3654868200       -0.7602401994
 H          5.3672490491       -2.8679693303        0.5664364405
 H          4.2827859995       -2.9741346499       -1.6946238497
 H          5.3136678595       -1.6323186098       -2.2211352692
 O          2.6559599193       -1.7977651102       -0.4461113997
 C          1.5847248292       -1.1180867603        0.1064700803
 O          0.6309875091       -1.8527116604        0.4329637600
 H         -2.0800297309        0.1344943296        0.2792831499
 C         -1.7670712208        0.9525236197       -0.3514738199
 C         -0.4907197308        1.4769919697       -0.2098292896
 C         -0.0942326007        2.5153932299       -1.0458948193
 C         -0.9646744406        3.0150106201       -1.9967568493
 C         -2.2464074005        2.5073197001       -2.1180507196
 C         -2.6511055807        1.4679702099       -1.2888347999
 N         -3.9364268206        0.9218210199       -1.3989750702
 S         -4.7549543808        0.3759454596       -0.0473432105
 O         -6.1479435808        0.3980686697       -0.4402651007
 O         -4.4158298111        1.1420964794        1.1288756797
 C         -4.2362290108       -1.3160200904        0.1366307293
 C         -4.3332390506       -2.1519429302       -0.9578503509
 C         -3.9536512306       -3.4771928402       -0.8226418811
 C         -3.4887402008       -3.9424105105        0.3981126289
 C         -3.4015401210       -3.0917333107        1.4886506491
 C         -3.7791109810       -1.7648059507        1.3591438793
 H         -3.7208942112       -1.0683382608        2.1812245194
 H         -3.0356841812       -3.4541559209        2.4359681490
 H         -3.1900862608       -4.9736910305        0.5011163487
 H         -4.0186258905       -4.1431845901       -1.6680531813
 H         -4.7019466605       -1.7553329600       -1.8891320309
 H         -4.5471868805        1.3882736600       -2.0531780102
 H         -2.9292694604        2.9090595002       -2.8513660797
 H         -0.6463113705        3.8183567002       -2.6440101591
 H          0.9022149893        2.9175945199       -0.9478258290
 C          0.4264665190        0.9221173295        0.8536714505
 H         -0.1145408711        0.1114809494        1.3608279602
 C          0.7504252388        1.9912522393        1.8801712307
 C         -0.3305387714        2.4341232391        2.8181515007
 C          0.8202270386        1.6209943190        3.3293708807
 H          1.5586033685        2.1060110189        3.9502519809
 H          0.6386655885        0.5888172890        3.5924597305
 H         -1.2973598213        1.9597577191        2.7294219204
 H         -0.3815252614        3.4780430991        3.0877123309
 H          1.4441827988        2.7393748094        1.5208549110
 O          2.9145772391        2.2525330098       -0.1201610888
