  62
        -98.94762707
 C          1.8470942764        1.3191572181       -0.1034808813
 C          2.9382192309        0.5796290475        0.4163860162
 C          3.2325448369       -0.6939168732       -0.2469987579
 C          2.4773080962       -1.0944392555       -1.2854579430
 C          2.6355680922       -2.3774498042       -2.0540475163
 C          1.9299612536       -3.5678011770       -1.3896666180
 C          2.6281897937       -4.1206168621       -0.1464886229
 H          2.1693410247       -5.0862871157        0.0753914385
 H          3.6811850342       -4.3010972494       -0.3678920504
 C          2.5042588557       -3.2245875257        1.0939618580
 H          1.6781788481       -2.5221857152        0.9528095646
 H          2.2455247671       -3.8387555651        1.9604706466
 C          3.7753614964       -2.4530012525        1.4521656921
 H          3.5565084865       -1.8200542862        2.3162899798
 H          4.5599283365       -3.1568422475        1.7406270026
 C          4.3148161424       -1.5543911469        0.3316572358
 H          5.0736129538       -0.8940181282        0.7594406858
 H          4.7764698267       -2.1608768453       -0.4473088128
 H          0.9131103001       -3.2659534019       -1.1240396533
 H          1.8621959494       -4.3673669480       -2.1314097984
 H          2.1856471168       -2.2125843626       -3.0354561217
 H          3.6937966486       -2.6039992492       -2.1877497110
 O          1.4561936530       -0.3471718566       -1.7734712113
 C          1.0762318074        0.8372599394       -1.1621059849
 O          0.0629321060        1.3585333819       -1.6672314187
 O          3.6248334811        0.9619282317        1.4030218363
 C          1.4179790956        2.5706837257        0.6438916638
 C         -0.0606748175        2.4783130917        0.9301659632
 C         -0.9789177116        3.4834686991        0.6587105221
 C         -2.3268087191        3.2892084863        0.9123291807
 C         -2.7900373939        2.0841649358        1.4071904694
 C         -1.8768772042        1.0729443567        1.6834945811
 C         -0.5259142006        1.2902392382        1.4820400520
 H          0.1698272618        0.4943121098        1.7071155383
 N         -2.2845522232       -0.1995775871        2.1415320893
 S         -2.0599030515       -1.4657001467        1.0600939065
 O         -2.5320928911       -2.6453684419        1.7540393702
 O         -0.6930374420       -1.4951577206        0.6113467479
 C         -3.1788661997       -1.0870869965       -0.2768522288
 C         -2.8156742767       -0.1508287083       -1.2239451975
 C         -3.7356573258        0.1917548514       -2.2043035632
 C         -4.9898181653       -0.3981414937       -2.2198340498
 C         -5.3373514168       -1.3372775687       -1.2599496042
 C         -4.4267649583       -1.6818213542       -0.2749501749
 H         -4.6493536934       -2.4072750639        0.4910399527
 H         -6.3120849450       -1.7977536063       -1.2744913816
 H         -5.6990235618       -0.1246267536       -2.9851617715
 H         -3.4578534761        0.9227209085       -2.9467031168
 H         -1.8320881995        0.2936574110       -1.2005107009
 H         -3.2400890872       -0.2241782256        2.4724585011
 H         -3.8447998496        1.9206834879        1.5706272272
 H         -3.0289077227        4.0797541098        0.6956035797
 H         -0.6449417085        4.4125209960        0.2267555457
 H          1.9541723076        2.5064343799        1.6065385851
 C          1.8403475785        3.8830058731        0.0021248200
 C          2.9931379423        3.9382950338       -0.9541781318
 C          1.5993766381        4.1793560545       -1.4467169633
 H          1.3235668436        5.1863282963       -1.7239815207
 H          1.1221000412        3.4138609297       -2.0372754150
 H          3.6723356866        4.7752865525       -0.8906907654
 H          3.4724300233        3.0049971993       -1.2129522759
 H          1.7528846872        4.7180235742        0.6906085494
