  62
        -98.93879399
 C          1.2016277504        1.4304985003        0.6123059496
 C          2.0623553901        1.2461919900       -0.4939816105
 C          3.1122914302        0.2148049701       -0.3480458304
 C          3.1487730105       -0.5396029096        0.7656810098
 C          4.1313139706       -1.5929971094        1.2374322200
 C          5.2873818704       -2.0328834896        0.3439282198
 C          4.8765759002       -2.9229520600       -0.8313583398
 H          5.7269636000       -3.0208473102       -1.5089638399
 H          4.6464833403       -3.9183414699       -0.4431289794
 C          3.6575761000       -2.4489256703       -1.6177674297
 H          2.8084817201       -2.3523673901       -0.9407011595
 H          3.4043345299       -3.2225858306       -2.3476121093
 C          3.8382580898       -1.1372331606       -2.3762301101
 H          2.9342073696       -0.9634725908       -2.9671084700
 H          4.6755323896       -1.2272081508       -3.0715919903
 C          4.0706630499        0.1023299997       -1.5008414006
 H          5.1002378700        0.1439860899       -1.1536284008
 H          3.9005328698        0.9866700095       -2.1224419308
 H          5.8418249403       -1.1638805997        0.0015420094
 H          5.9691601506       -2.6118965594        0.9724391499
 H          4.5468862108       -1.1952729690        2.1696960797
 H          3.5418828807       -2.4707809793        1.5207406804
 O          2.2118121107       -0.4060230293        1.7520703400
 C          1.2370789406        0.5688967507        1.7100079099
 O          0.4706240808        0.5736022710        2.6942873701
 O          1.9970653899        1.9211737296       -1.5535040807
 C          0.1621763603        2.5408236503        0.6617814295
 C         -1.0308576598        2.1428894000       -0.1708904801
 C         -1.1456065502        2.4437259395       -1.5224880902
 C         -2.2446280103        2.0114436293       -2.2452507298
 C         -3.2481110201        1.2752614494       -1.6397921894
 C         -3.1347053298        0.9609617799       -0.2921309593
 C         -2.0345368697        1.3945315102        0.4318620003
 H         -1.9374683794        1.1323230005        1.4777705304
 N         -4.1380416697        0.1716323800        0.3208636712
 S         -4.1272251897       -1.4382804501       -0.1441462883
 O         -4.4134872200       -1.5122319006       -1.5532801682
 O         -5.0521932795       -2.1130465799        0.7365490822
 C         -2.4599543096       -1.9834523299        0.1762757315
 C         -1.4688993498       -1.6538786102       -0.7265058288
 C         -0.1593107398       -1.9980673601       -0.4360923590
 C          0.1337781905       -2.6686313197        0.7406508312
 C         -0.8718052093       -2.9902610294        1.6383475015
 C         -2.1815197993       -2.6360406395        1.3601896417
 H         -2.9932668392       -2.8623490394        2.0331054120
 H         -0.6354432690       -3.5040919891        2.5562523516
 H          1.1539963706       -2.9378585096        0.9648415211
 H          0.6252306701       -1.7284502103       -1.1262573892
 H         -1.7296196401       -1.1412996905       -1.6381879989
 H         -4.1018495794        0.2119647304        1.3307490212
 H         -4.1009380402        0.9168210392       -2.1928461890
 H         -2.3207150405        2.2507150789       -3.2951777499
 H         -0.3585566203        2.9941809094       -2.0112455106
 H         -0.1683207294        2.5840867106        1.7085390095
 C          0.7343974602        3.8914294802        0.2848332189
 C         -0.0405533398        5.1269351303        0.6273160987
 C          1.2228130404        4.8053777306        1.3663736885
 H          2.0998650403        5.4056803505        1.1762016981
 H          1.1435485506        4.4623038909        2.3879441886
 H         -0.0337297500        5.9505130401       -0.0698938616
 H         -0.9783750096        4.9993810904        1.1470174989
 H          1.2915482900        3.8849909299       -0.6422474712
