  62
        -98.94567951
 C         -2.5556079199       -0.5816836400        0.1663326197
 C         -1.9849108797        0.2150270596       -0.8557551505
 C         -2.1818482294        1.6627967497       -0.7140485409
 C         -2.8916049892        2.1455741202        0.3219392790
 C         -3.1793002489        3.5969915503        0.5959228487
 C         -2.0557430887        4.3206953202        1.3516838485
 C         -0.7915330686        4.5949652697        0.5355293584
 H         -0.1785339985        5.2851058297        1.1183790982
 H         -1.0624588685        5.1020152695       -0.3907613118
 C          0.0401032811        3.3442393194        0.2154867787
 H         -0.2627842991        2.5279994897        0.8759530689
 H          1.0949487611        3.5414950292        0.4183334186
 C         -0.0615225991        2.8709727191       -1.2343098212
 H          0.5322417807        1.9593921789       -1.3388929110
 H          0.3625753211        3.6284679488       -1.8959244714
 C         -1.4910814392        2.5596241193       -1.6957112511
 H         -1.4358486593        2.0294949291       -2.6491856710
 H         -2.0544641290        3.4813013694       -1.8369027813
 H         -1.7977360488        3.7351352704        2.2374817186
 H         -2.4569168185        5.2777105504        1.6931363582
 H         -3.3817521688        4.1147698801       -0.3417583915
 H         -4.0811806789        3.6256242607        1.2112068887
 O         -3.4540282894        1.3412505005        1.2642322693
 C         -3.2751939197       -0.0334882195        1.2267067396
 O         -3.7943483899       -0.6466178892        2.1825179698
 H         -0.3719756399       -0.9452495001        1.4794662198
 C         -0.0007680901       -1.7283287304        0.8289231000
 C         -0.9017870103       -2.4329405704        0.0399742002
 C         -0.4123654006       -3.4392500107       -0.7824601996
 C          0.9425058493       -3.7214507510       -0.8133680795
 C          1.8359766095       -3.0159434011       -0.0289913697
 C          1.3588983198       -2.0038199307        0.7961379900
 N          2.2346611500       -1.2902247807        1.6300025598
 S          3.7450671701       -0.7591600512        1.1628042997
 O          4.5408031498       -1.8891915215        0.7533485899
 O          4.2327005803       -0.0090867510        2.2972717595
 C          3.5196051903        0.3449802785       -0.2207674206
 C          3.2170030502       -0.1732012218       -1.4645712605
 C          3.0593040904        0.6981172380       -2.5307268507
 C          3.2144128507        2.0624774680       -2.3398542111
 C          3.5193432708        2.5670100883       -1.0850679212
 C          3.6677371207        1.7022327785       -0.0130141810
 H          3.9093750008        2.0490027987        0.9788762689
 H          3.6410333511        3.6284639583       -0.9398751015
 H          3.0958315508        2.7352064078       -3.1743681212
 H          2.8137608503        0.3075443278       -3.5051063506
 H          3.1116157799       -1.2385703118       -1.5854414302
 H          1.7814034602       -0.5969352005        2.2054987896
 H          2.8914052395       -3.2353823713       -0.0395537097
 H          1.3094522891       -4.5067779013       -1.4569425693
 H         -1.0907520907       -4.0025445207       -1.4016473194
 C         -2.3690886602       -2.0866578300        0.1318656001
 H         -2.7499322103       -2.4665866297        1.0917065402
 C         -3.1980020904       -2.6821172301       -0.9884528297
 C         -3.7730887407       -4.0597491399       -0.8588617294
 C         -4.6701122604       -2.8623464197       -0.7766562096
 H         -5.3393802704       -2.6586426598       -1.5990232697
 H         -5.0680412404       -2.5830295594        0.1884068103
 H         -3.5716567108       -4.6036557397        0.0517540208
 H         -3.8308350509       -4.6803421801       -1.7404583192
 H         -2.8702028603       -2.3515713204       -1.9674640098
 O         -1.3389862998       -0.2538823908       -1.8273575504
