  62
        -98.94604452
 C          1.3951346101        1.1616394196       -0.0477160184
 C          2.2652125798        0.6487964087        0.9512209914
 C          2.9994998496       -0.5766452012        0.6132526907
 C          2.8062357697       -1.1450588403       -0.5903474898
 C          3.5223940896       -2.3656414801       -1.0898700205
 C          4.8045241298       -1.9864362198       -1.8442878700
 C          5.6950300399       -0.9973759805       -1.0920940392
 H          6.5825034000       -0.8279171802       -1.7057143689
 H          5.1751051500       -0.0401226805       -1.0095193386
 C          6.1220240995       -1.4637628416        0.3067659406
 H          5.9817080493       -2.5415529216        0.3970276598
 H          7.1885683795       -1.2650119119        0.4313202609
 C          5.4002493494       -0.7600218023        1.4575821910
 H          5.4612898097        0.3225470878        1.3205702517
 H          5.9248057792       -1.0018284330        2.3857174309
 C          3.9270715293       -1.1402931121        1.6522545804
 H          3.8333460791       -2.2267600122        1.7041213296
 H          3.5986728392       -0.7196542728        2.6069028807
 H          5.3657162397       -2.8994407598       -2.0515269806
 H          4.5244683501       -1.5364721491       -2.7996972198
 H          3.7629210993       -3.0104769407       -0.2467496409
 H          2.8594753996       -2.9033731995       -1.7703619810
 O          1.9534478200       -0.6377538495       -1.5149258296
 C          1.2260861502        0.5196092705       -1.2742186889
 O          0.4886102704        0.8425600913       -2.2270103588
 H         -1.4170793796        1.7222391110       -1.3597434485
 C         -1.7068633598        1.6641606404       -0.3220560686
 C         -0.7964690999        2.0151255595        0.6643576418
 C         -1.1805354101        1.8954263586        1.9956650017
 C         -2.4427342903        1.4358639986        2.3288416611
 C         -3.3389706502        1.0632777395        1.3427440207
 C         -2.9577994399        1.1688393404        0.0116083008
 N         -3.8307304498        0.7102113312       -0.9967791597
 S         -4.3435714502       -0.8742932388       -0.7971864709
 O         -4.5133187700       -1.4061811578       -2.1312289013
 O         -5.5235158603       -0.8871467292        0.0321442889
 C         -3.0128150505       -1.7078606197        0.0567746888
 C         -3.2556352908       -2.2889584005        1.2848570483
 C         -2.2120707411       -2.9058415012        1.9556009680
 C         -0.9462672510       -2.9269805510        1.3914417083
 C         -0.7192652006       -2.3423773602        0.1553268087
 C         -1.7588001504       -1.7258389895       -0.5215729310
 H         -1.5955333001       -1.2590818288       -1.4808602807
 H          0.2666103395       -2.3528599301       -0.2823394611
 H         -0.1294991411       -3.3985150315        1.9146374881
 H         -2.3862302013       -3.3621361718        2.9165859077
 H         -4.2534120209       -2.2422046606        1.6897908381
 H         -3.4525376796        0.8365148918       -1.9255655195
 H         -4.3174169703        0.6774266895        1.5797446702
 H         -2.7272798605        1.3531361679        3.3664269810
 H         -0.4705061902        2.1456068979        2.7703839920
 C          0.6125717003        2.4184197695        0.3046450024
 H          1.0923083302        2.8114197887        1.2104971127
 C          0.6665298007        3.4844719902       -0.7696983169
 C          0.2903638309        4.8906477300       -0.4136605259
 C          1.7213315109        4.5458134000       -0.6944436859
 H          2.1669876211        4.8948212005       -1.6139507656
 H          2.4099116007        4.5097576792        0.1371265042
 H          0.0079242007        5.0871529094        0.6095239342
 H         -0.2496226489        5.4792532807       -1.1393289756
 H          0.4001823008        3.1265833710       -1.7556135972
 O          2.4211047097        1.1957272279        2.0741138018
