  62
        -98.94365849
 C          1.9193232005        1.3333156409       -0.1740080097
 C          1.8006796705       -0.0207007490        0.2225922705
 C          3.0149362906       -0.6235407191        0.7870356701
 C          4.1318419807        0.1148800907        0.9174676497
 C          5.4430061709       -0.3579608294        1.4844016993
 C          6.3313077904       -1.0909829796        0.4695071891
 C          5.8617565101       -2.4949455896        0.0852194894
 H          6.6841134399       -2.9699697398       -0.4536087408
 H          5.6865322804       -3.0782605195        0.9897741695
 C          4.6086947498       -2.5246645895       -0.8012183102
 H          4.7635778895       -3.2238680396       -1.6260217602
 H          4.4527463898       -1.5379502296       -1.2434309502
 C          3.3304481700       -2.9506082293       -0.0788025597
 H          2.5017084498       -2.8937860892       -0.7887570094
 H          3.4239711800       -3.9877681793        0.2506412404
 C          2.9763113405       -2.0810878691        1.1343851003
 H          1.9568081606       -2.3205066789        1.4464121307
 H          3.6525353608       -2.2950309291        1.9616810501
 H          6.4147083102       -0.4757282997       -0.4294842910
 H          7.3282035106       -1.1724523897        0.9090049987
 H          5.2606365311       -1.0035171393        2.3440648994
 H          5.9742392211        0.5330943706        1.8260357990
 O          4.1934115408        1.4237846107        0.5520818695
 C          3.0991507307        2.0582945508       -0.0159849602
 O          3.2972896907        3.2517505907       -0.3238094404
 O          0.7423508604       -0.6889223589        0.1131513009
 C          0.7299473704        2.0331583510       -0.8044573094
 C         -0.4739736693        1.9426164712        0.1013254510
 C         -0.3197226688        2.1941518714        1.4619649809
 C         -1.3947496885        2.1099964016        2.3258232213
 C         -2.6544428087        1.7867824817        1.8517598918
 C         -2.8229203792        1.5475393816        0.4953126219
 C         -1.7391008495        1.6285775213       -0.3711904785
 H         -1.8904922299        1.4379188413       -1.4224449184
 N         -4.1086085394        1.2363191817        0.0046328823
 S         -4.8269966594       -0.1893559182        0.5109769127
 O         -6.0989030697       -0.2423158081       -0.1734972768
 O         -4.8725669789       -0.2071904180        1.9502235527
 C         -3.7642116398       -1.4857077684       -0.0974061375
 C         -2.5678962096       -1.7273057684        0.5475851121
 C         -1.7143232699       -2.6902720386        0.0340607120
 C         -2.0703083004       -3.3898675087       -1.1084481078
 C         -3.2771772506       -3.1373814586       -1.7435008275
 C         -4.1319605203       -2.1713789984       -1.2386249573
 H         -5.0788870804       -1.9400971384       -1.6995415070
 H         -3.5501120309       -3.6851597687       -2.6313795173
 H         -1.3996828006       -4.1352314788       -1.5067580480
 H         -0.7653814998       -2.8640812687        0.5135606417
 H         -2.3133291892       -1.1633712284        1.4302275420
 H         -4.1753152597        1.2953622116       -1.0022763177
 H         -3.5006058285        1.6999671719        2.5134354021
 H         -1.2530994181        2.3007029317        3.3792237212
 H          0.6626737614        2.4484678513        1.8371676606
 H          1.0102097705        3.0927451209       -0.8973927796
 C          0.4860205199        1.4682462009       -2.1897144592
 C         -0.0870204104        2.3293820708       -3.2741520591
 C          1.3561039296        1.9279346206       -3.3192174896
 H          1.6694720192        1.2050773505       -4.0574773096
 H          2.1046157397        2.6740811105       -3.0944616699
 H         -0.7624916007        1.8816305008       -3.9878977889
 H         -0.3184664602        3.3553419309       -3.0302833592
 H          0.2101602397        0.4197261409       -2.1662311790
