  62
        -98.93575661
 C          2.2846954846        1.3003813055        0.2567123189
 C          2.5368986266        0.3678492986       -0.7751184421
 C          3.4640400231       -0.7355452894       -0.4540197012
 C          4.0116341163       -0.7937063500        0.7732312185
 C          4.9748549617       -1.8112278540        1.3307702649
 C          6.1387673644       -2.2273673925        0.4179562173
 C          6.0194226439       -3.6600564881       -0.1043558663
 H          7.0173407863       -4.0226856520       -0.3606014880
 H          5.6402484823       -4.2928004932        0.7009060008
 C          5.1356386029       -3.8288929685       -1.3390334331
 H          5.6447879381       -3.4064619864       -2.2079681070
 H          5.0210678791       -4.9003954281       -1.5189205378
 C          3.7454613470       -3.1970377241       -1.2412965252
 H          3.0966372711       -3.7068174428       -1.9566342811
 H          3.3187652306       -3.3621687060       -0.2525449886
 C          3.7247623604       -1.6989574506       -1.5797116114
 H          4.6577223889       -1.4161459502       -2.0758088137
 H          2.9275553546       -1.4967092145       -2.3020058286
 H          7.0592711118       -2.1565939246        0.9996410885
 H          6.2271609078       -1.5275573462       -0.4115207960
 H          5.3638622422       -1.3602967990        2.2466144373
 H          4.4088978415       -2.6948853902        1.6362649312
 O          3.7178497323        0.1181304597        1.7462147688
 C          2.8524128167        1.1727437397        1.5220294691
 O          2.6686951040        1.9111269926        2.5122960119
 H         -0.0000985510        0.4726886799        1.1456585861
 C         -0.5745131196        0.9143927117        0.3392546977
 C         -0.0243473580        1.9673722983       -0.3815245526
 C         -0.7798361338        2.5360614201       -1.3983495263
 C         -2.0402056153        2.0453523240       -1.6937915243
 C         -2.5744061525        0.9845971287       -0.9863874580
 C         -1.8331922703        0.4163305497        0.0415709538
 N         -2.3650427393       -0.6688411323        0.7633075926
 S         -3.8769076585       -0.4665587595        1.4690369061
 O         -4.1223494779        0.9175596631        1.8032775281
 O         -3.9113605613       -1.4086115121        2.5667348485
 C         -5.0133750284       -1.0017401856        0.2076518044
 C         -4.8641444646       -2.2756722067       -0.3047463487
 C         -5.7442849161       -2.7101286936       -1.2828657269
 C         -6.7542741460       -1.8694575438       -1.7270778741
 C         -6.8927316994       -0.5946356448       -1.1998148388
 C         -6.0149179495       -0.1532281690       -0.2218069255
 H         -6.0792245568        0.8314374897        0.2129729053
 H         -7.6785250574        0.0570156390       -1.5465590327
 H         -7.4372031393       -2.2102791198       -2.4891602249
 H         -5.6394468703       -3.7006040182       -1.6955834350
 H         -4.0677959519       -2.8972658097        0.0695524656
 H         -1.7186546218       -1.0595985395        1.4336831842
 H         -3.5515816192        0.5945364641       -1.2196886979
 H         -2.6129260994        2.4932337935       -2.4913813112
 H         -0.3803932019        3.3622607199       -1.9630486133
 C          1.3462382765        2.4665956648        0.0100438831
 H          1.2503704273        2.9880840781        0.9745501586
 C          1.9540004948        3.4183595803       -0.9998743389
 C          1.6582447178        4.8856120728       -0.9324485726
 C          3.0118122797        4.3753105553       -0.5417829615
 H          3.8483626650        4.5720231223       -1.1952862521
 H          3.2721633156        4.3600467749        0.5069943491
 H          1.5683957700        5.4369522090       -1.8562497091
 H          1.0014124299        5.2283806738       -0.1471011435
 H          2.0795233885        2.9625379924       -1.9751126057
 O          2.0109808302        0.4456842814       -1.9156423996
