  62
        -98.93778014
 C          1.8940278846       -0.6718386098        0.5567671172
 C          3.0345745061       -1.2764107015       -0.0253072134
 C          4.3263481978       -0.6122738827        0.2123794586
 C          4.3623141842        0.5099073335        0.9511289616
 C          5.5617339173        1.3273886381        1.3620542656
 C          6.6428455935        1.5842110858        0.3038155560
 C          6.1217175308        1.7229853188       -1.1339439627
 H          5.0340711773        1.8146635262       -1.1302498578
 H          6.5237331906        2.6393226810       -1.5702337511
 C          6.5328383219        0.5542809755       -2.0326698208
 H          7.5785770725        0.3103384951       -1.8332095961
 H          6.4648069726        0.8729203079       -3.0756102010
 C          5.6877543637       -0.7108813588       -1.8899215343
 H          4.6887392068       -0.5359288868       -2.2982117279
 H          6.1493281549       -1.4936136722       -2.4966093686
 C          5.5185934380       -1.2362120282       -0.4547380822
 H          5.3058597216       -2.3071019726       -0.5119421829
 H          6.4258852166       -1.0935301701        0.1270172269
 H          7.3833808981        0.7863937709        0.3378724526
 H          7.1567433051        2.5017744480        0.5954734303
 H          5.1503849537        2.2802983617        1.7039238110
 H          6.0187519015        0.8449811494        2.2311328399
 O          3.2374289262        1.0639789896        1.4854594089
 C          1.9816691067        0.5046316230        1.2990935674
 O          1.0589181650        1.1416597431        1.8411686499
 H         -1.5321142215        0.4057104586        0.9802660798
 C         -1.2938980745        0.3916505309       -0.0694152195
 C         -0.2842764155       -0.4237271943       -0.5558055902
 C          0.0221625165       -0.3734588656       -1.9144717108
 C         -0.6627620368        0.4741453714       -2.7624011603
 C         -1.6740284959        1.2836945690       -2.2743023567
 C         -1.9846612569        1.2463629844       -0.9201119709
 N         -2.9841941640        2.0853252086       -0.4045369880
 S         -4.1137896395        1.5498626048        0.7008841577
 O         -5.0971556613        2.6097639739        0.7456998389
 O         -3.4865122048        1.2047604646        1.9499740514
 C         -4.8322422474        0.1009127844       -0.0519201836
 C         -5.9190032452        0.2617977136       -0.8897173458
 C         -6.4554157292       -0.8521538112       -1.5145845068
 C         -5.8933284033       -2.1014356984       -1.2987241294
 C         -4.8007312524       -2.2454798400       -0.4576999503
 C         -4.2615143685       -1.1354595445        0.1736184654
 H         -3.4152512904       -1.2112406055        0.8358966889
 H         -4.3644125078       -3.2169056108       -0.2881585244
 H         -6.3101913488       -2.9687234384       -1.7859403481
 H         -7.3074442724       -0.7436053122       -2.1662128071
 H         -6.3307703334        1.2494976318       -1.0197880472
 H         -3.4173588010        2.6883008969       -1.0884053511
 H         -2.2088111476        1.9512669172       -2.9328141665
 H         -0.4125646181        0.5041400752       -3.8120818838
 H          0.8172163434       -1.0022229041       -2.2907999029
 C          0.5393190414       -1.3240276188        0.3307525035
 H          0.7565046140       -2.2449700892       -0.2285678387
 C         -0.1265895505       -1.6993912255        1.6365509719
 C         -1.1706228190       -2.7745315049        1.6489086410
 C          0.1803817057       -3.0347780252        2.2431469700
 H          0.2685751919       -3.1043947678        3.3170142993
 H          0.8601239044       -3.6805880479        1.7066397929
 H         -2.0104329098       -2.6696827359        2.3197529153
 H         -1.4073563809       -3.2486715413        0.7082647866
 H         -0.2473700208       -0.8642385150        2.3165199078
 O          2.9785855141       -2.3346171188       -0.7066261828
