  62
        -98.93411231
 C         -2.1804232149       -0.8205871058       -0.3921117132
 C         -3.4229035414       -1.0394584587        0.2528817684
 C         -4.2345169666        0.1547070108        0.5278320656
 C         -3.7466966225        1.3654220007        0.2015553554
 C         -4.4781860276        2.6689897870        0.3519559113
 C         -5.5143340971        2.8243912739       -0.7797617605
 C         -6.9683451785        2.8295922616       -0.3073780325
 H         -7.1911012596        3.7983101058        0.1447932506
 H         -7.5996555672        2.7260059095       -1.1924000394
 C         -7.3458813887        1.7431427356        0.7041897710
 H         -8.4367928211        1.7061592146        0.7383548373
 H         -7.0137059750        2.0379526180        1.7007304799
 C         -6.8147334178        0.3349867898        0.4066576371
 H         -6.6154136666        0.2158484226       -0.6584749030
 H         -7.5944728901       -0.3837146590        0.6666359453
 C         -5.5591626442       -0.0588265315        1.2070859885
 H         -5.5626826621        0.4581643653        2.1707765884
 H         -5.5976273492       -1.1328623482        1.4116619553
 H         -5.3268507684        3.7541162863       -1.3189706323
 H         -5.3650789435        2.0116462877       -1.4936435211
 H         -4.9636735685        2.7076608220        1.3246016341
 H         -3.7356225513        3.4655937889        0.3008536037
 O         -2.5354294772        1.5386271537       -0.3873033862
 C         -1.7214375441        0.4595314104       -0.7010823980
 O         -0.6474037215        0.7778603430       -1.2466904762
 H          1.2323949089       -1.1369137259       -1.2568345470
 C          1.1207297677       -1.4511517479       -0.2313273229
 C         -0.0944564180       -1.9519341110        0.2066090039
 C         -0.2212742071       -2.3218224477        1.5430288993
 C          0.8430365295       -2.1923191826        2.4147064430
 C          2.0542973619       -1.6857344914        1.9755615332
 C          2.1870715836       -1.3054737277        0.6475237560
 N          3.4140047425       -0.7887599274        0.1834703341
 S          4.1640805061        0.3809273460        1.1448503914
 O          4.8355616487       -0.2874381870        2.2322960622
 O          3.2191236008        1.4075270123        1.5262509082
 C          5.3682893116        1.0279285014        0.0022239929
 C          6.6143925403        0.4349071509       -0.0670477653
 C          7.5374646089        0.9218058822       -0.9788952046
 C          7.2003560432        1.9859360294       -1.8019217807
 C          5.9452862122        2.5707370565       -1.7208380669
 C          5.0168637979        2.0880420961       -0.8119264989
 H          4.0321346974        2.5170476002       -0.7100708204
 H          5.6857968611        3.3988774299       -2.3606841117
 H          7.9201406011        2.3644976212       -2.5103495739
 H          8.5146893651        0.4714460423       -1.0444012326
 H          6.8322517001       -0.3839387795        0.5983365687
 H          3.3278138429       -0.4461272184       -0.7647196836
 H          2.8875044975       -1.5621934607        2.6482287641
 H          0.7303686795       -2.4822113602        3.4488262952
 H         -1.1735494986       -2.6967002362        1.8922224938
 C         -1.3050137222       -2.0273322380       -0.6902380540
 H         -1.8999848632       -2.8995359525       -0.3879128049
 C         -0.9779748950       -2.1452938368       -2.1635432438
 C         -0.4206343745       -3.4331501047       -2.6899105955
 C         -1.8216962573       -3.0272954892       -3.0323298326
 H         -2.0341596957       -2.7040967284       -4.0403981957
 H         -2.6375914189       -3.5571834138       -2.5632175470
 H         -0.2834852488       -4.2388660532       -1.9848113486
 H          0.3301940213       -3.3929383451       -3.4640462319
 H         -0.6211420595       -1.2199586978       -2.5992477233
 O         -3.8346924883       -2.1841452906        0.5819820819
