  62
        -98.93785399
 C         -2.5856693728       -1.1355726134        0.5091122256
 C         -3.4417583061       -0.8506543920       -0.5838037088
 C         -4.6039015400        0.0017719419       -0.2792566690
 C         -4.7883333356        0.4562991018        0.9724755830
 C         -5.8924782467        1.3786426748        1.3993510035
 C         -5.4633737614        2.8483104329        1.2874317042
 C         -4.8307098963        3.2064646752       -0.0573448741
 H         -4.5977976547        4.2732201386       -0.0329458574
 H         -3.8825655313        2.6732014654       -0.1584532576
 C         -5.7146127355        2.9037561636       -1.2753618276
 H         -6.7518011514        2.7840023628       -0.9601201805
 H         -5.6791499949        3.7581078905       -1.9546180883
 C         -5.2850728147        1.6763169285       -2.0810212606
 H         -4.2210842230        1.7490156502       -2.3196095840
 H         -5.8335292510        1.6814810850       -3.0267633087
 C         -5.5375661543        0.3183489944       -1.4139561241
 H         -5.3677135555       -0.4571257292       -2.1666725571
 H         -6.5771200313        0.2568405733       -1.0857457679
 H         -4.7350671169        3.0569969195        2.0745323762
 H         -6.3389081060        3.4771252785        1.4591487796
 H         -6.7697665436        1.1972244319        0.7814460395
 H         -6.1402793819        1.1596946776        2.4394007826
 O         -3.9469805851        0.1596606859        1.9963244779
 C         -2.8313171604       -0.6310033097        1.7891470568
 O         -2.1435737421       -0.8226667977        2.8131834761
 O         -3.2658062366       -1.2729012836       -1.7544677286
 C         -1.3423946920       -2.0018408204        0.3869339746
 C         -0.1521044620       -1.1717493715       -0.0198140048
 C         -0.1833463530       -0.3690485349       -1.1561194669
 C          0.9224508905        0.3802627218       -1.5139798702
 C          2.0753461227        0.3509649981       -0.7484204337
 C          2.1165717361       -0.4438474805        0.3886983061
 C          1.0059420911       -1.1997819793        0.7429265338
 H          1.0380465653       -1.8095918626        1.6362846160
 N          3.2787727238       -0.4646816561        1.1773544103
 S          4.7518855778       -0.7467535679        0.4215003817
 O          4.5830900218       -1.5376654017       -0.7751190493
 O          5.6015527047       -1.3060701931        1.4496382410
 C          5.3401891172        0.8805052573        0.0035903673
 C          5.6475733266        1.1859878978       -1.3077323488
 C          6.1118160173        2.4571808330       -1.6084031417
 C          6.2607751666        3.3943506201       -0.5975876423
 C          5.9506992546        3.0704651422        0.7150352264
 C          5.4869519400        1.8014057107        1.0223640672
 H          5.2392703754        1.5089649096        2.0292042705
 H          6.0685041261        3.8018750881        1.4983264310
 H          6.6212324095        4.3831007158       -0.8338508928
 H          6.3543576808        2.7106476192       -2.6279469292
 H          5.5122780498        0.4265027325       -2.0613831487
 H          3.1929332080       -1.0179946465        2.0176409108
 H          2.9377831561        0.9358447952       -1.0233492286
 H          0.8862759234        0.9972756495       -2.3990790998
 H         -1.0806807280       -0.3468344291       -1.7557276895
 H         -1.1526375668       -2.3705382515        1.4076919617
 C         -1.5501200002       -3.2249318441       -0.4967420252
 C         -0.8777235542       -3.4290771460       -1.8174900119
 C         -0.4530425890       -4.2397329662       -0.6324928910
 H         -0.7073133493       -5.2882910583       -0.5978766518
 H          0.5016395791       -4.0024767459       -0.1855793018
 H         -1.4495595779       -3.9064600470       -2.5983850745
 H         -0.2050307479       -2.6665699666       -2.1767969841
 H         -2.5592866243       -3.6147871857       -0.4110625795
