  62
        -98.94056366
 C         -2.3406162937       -0.1844734812        0.2763565752
 C         -3.5147523450       -0.5631172432        0.9699892862
 C         -4.7264337147        0.2013988313        0.6472173271
 C         -4.6507461588        1.2061710846       -0.2448571878
 C         -5.8166039543        2.0306564395       -0.7068742685
 C         -6.4689346173        1.4183362149       -1.9543703048
 C         -6.7667844984       -0.0755447376       -1.8255205458
 H         -7.2523771957       -0.3913141757       -2.7514402363
 H         -5.8235154950       -0.6222426933       -1.7554262598
 C         -7.6561447503       -0.4447987525       -0.6300427656
 H         -8.1767889960        0.4422637768       -0.2677112984
 H         -8.4167257428       -1.1530837549       -0.9652353981
 C         -6.9136202608       -1.1063283449        0.5324194003
 H         -6.3150684040       -1.9404698093        0.1575814318
 H         -7.6567222674       -1.5196265993        1.2195672128
 C         -5.9978458911       -0.1857696736        1.3490618718
 H         -5.6901068709       -0.7330137051        2.2449243880
 H         -6.5518884689        0.7015371254        1.6616833996
 H         -5.7948908503        1.5607340180       -2.8022007567
 H         -7.3941462024        1.9593319076       -2.1608405560
 H         -6.5451347778        2.1040253536        0.0981376161
 H         -5.4547051365        3.0308159727       -0.9506666554
 O         -3.4984326898        1.5581676895       -0.8708668195
 C         -2.3172104812        0.8694293071       -0.6368619622
 O         -1.3416755099        1.2880858032       -1.2882701857
 O         -3.5459402098       -1.4922633844        1.8216543359
 C         -1.0555815836       -0.9469902238        0.5405184011
 C          0.0207503411       -0.0104395759        1.0301502139
 C         -0.2574125162        0.8251535934        2.1097753787
 C          0.6997820255        1.6933154147        2.5961667808
 C          1.9606680843        1.7379534018        2.0269499237
 C          2.2484840590        0.9096875782        0.9494356898
 C          1.2816217079        0.0417769253        0.4593659987
 H          1.5346376850       -0.5882820867       -0.3764405047
 N          3.5095288177        0.9503535398        0.3332473709
 S          4.1555157470       -0.4802285670       -0.2864397723
 O          3.6177965497       -0.7122854354       -1.6031436438
 O          3.9917460314       -1.5524219507        0.6695037249
 C          5.8754961347       -0.0247956323       -0.4136849855
 C          6.7511544064       -0.3888951791        0.5918305573
 C          8.0799140700       -0.0064458062        0.4948012648
 C          8.5076057760        0.7320968257       -0.5982179160
 C          7.6172441054        1.0894135900       -1.6000739147
 C          6.2876747847        0.7092980036       -1.5099504069
 H          5.5619403968        0.9554521781       -2.2676158540
 H          7.9539028518        1.6605677257       -2.4501751251
 H          9.5420531798        1.0283702795       -0.6717631650
 H          8.7751953992       -0.2857411754        1.2699485324
 H          6.3755917818       -0.9709373405        1.4180062177
 H          4.1929042707        1.4693119311        0.8674949297
 H          2.7104447269        2.4146761582        2.4078144427
 H          0.4668029429        2.3363549406        3.4317106646
 H         -1.2404164249        0.7843272120        2.5596317683
 H         -1.2924743767       -1.6475137196        1.3559508600
 C         -0.6534830930       -1.7456541129       -0.6810953957
 C          0.1878507737       -2.9767564092       -0.5322451617
 C         -1.2584165019       -3.0977248319       -0.9052518116
 H         -1.5089534570       -3.3900855025       -1.9139536921
 H         -1.9496302761       -3.4611516352       -0.1587890791
 H          0.9384925876       -3.1795553687       -1.2819140166
 H          0.4847821814       -3.2605002181        0.4664292547
 H         -0.4883834806       -1.1205758341       -1.5525100206
