  62
        -98.93905238
 C         -1.9568030051       -1.0127569902       -0.2917395256
 C         -3.0412933988       -1.1192968667        0.6164090483
 C         -4.3017461776       -0.4560369555        0.2430514742
 C         -4.3678328453        0.2225629870       -0.9172960567
 C         -5.5117242743        0.9601995289       -1.5813664335
 C         -6.7889969921        1.2765244512       -0.8081611559
 C         -6.6208689628        2.3073496781        0.3080808148
 H         -6.4384000459        3.2841679135       -0.1471340951
 H         -7.5604003646        2.3692938651        0.8614309855
 C         -5.4826580342        2.0388419803        1.2895196740
 H         -4.5278872427        2.0591443843        0.7596855690
 H         -5.4648290147        2.8587013652        2.0128298300
 C         -5.5884560202        0.7318938342        2.0725513803
 H         -6.5504129065        0.6885918402        2.5870281384
 H         -4.8023241641        0.7393074700        2.8324759890
 C         -5.4180378974       -0.5517583413        1.2428759503
 H         -6.3483179233       -0.8335114091        0.7556178506
 H         -5.1474609872       -1.3614008663        1.9268588226
 H         -7.2306452765        0.3625997914       -0.4220265335
 H         -7.4974769925        1.6882315395       -1.5321426409
 H         -5.0840627726        1.8926625032       -1.9637886837
 H         -5.7780778172        0.3620702290       -2.4599158474
 O         -3.2979638435        0.3004757105       -1.7596501829
 C         -2.0790039040       -0.2955084425       -1.4798411182
 O         -1.2229204303       -0.1054326379       -2.3677332080
 O         -2.9639956121       -1.7609964396        1.6976412702
 C         -0.6641189260       -1.7097931928        0.0992642506
 C          0.3417860334       -0.7206912160        0.6375107916
 C          0.6655276913       -0.7034694064        1.9893109593
 C          1.5926360357        0.1982978387        2.4826604668
 C          2.2185036159        1.0964657354        1.6376169420
 C          1.8990041539        1.0881271807        0.2854808849
 C          0.9727565468        0.1810642028       -0.2080760682
 H          0.7150056656        0.1938194278       -1.2564250277
 N          2.5429708078        1.9892674327       -0.5816629447
 S          4.2136292092        2.0538496503       -0.4820407216
 O          4.5978528616        2.9468315590        0.5833694300
 O          4.6682590755        2.4221426265       -1.8046262820
 C          4.7158202145        0.3887632084       -0.0798769624
 C          5.3855317483        0.1379270139        1.1001449525
 C          5.7261093696       -1.1683505465        1.4131888550
 C          5.3876884712       -2.1961830974        0.5472864454
 C          4.7184241767       -1.9271092821       -0.6368003333
 C          4.3768984606       -0.6234305974       -0.9560438317
 H          3.8575696651       -0.3829905996       -1.8700364332
 H          4.4567145299       -2.7279465829       -1.3094383565
 H          5.6463063297       -3.2136435241        0.7944596234
 H          6.2485534675       -1.3799999979        2.3321075694
 H          5.6239934067        0.9667130842        1.7466095793
 H          2.2344038629        1.9139715993       -1.5401324219
 H          2.9411111819        1.8090228999        2.0016209211
 H          1.8314365621        0.2013576021        3.5350513697
 H          0.1728245601       -1.3958699901        2.6561735936
 H         -0.9425868701       -2.3810617568        0.9223381394
 C         -0.0740118710       -2.5431363099       -1.0220406784
 C          0.9487492696       -3.5861216910       -0.6889605238
 C         -0.4272967025       -3.9956414540       -1.1187702217
 H         -0.5567694891       -4.4294366496       -2.0990740129
 H         -1.0976017313       -4.3979173248       -0.3732872432
 H          1.7662826020       -3.7408678221       -1.3756501221
 H          1.2150325702       -3.7101631406        0.3494815981
 H          0.0422383471       -1.9999299723       -1.9506321192
