  62
        -98.93532905
 C          1.1998380002        1.1858644467        0.7641060229
 C          1.4502613548        0.4936525475       -0.4464482235
 C          2.3322904401       -0.6873417114       -0.3461245195
 C          2.6918035970       -1.1460635472        0.8630364820
 C          3.5153561763       -2.3632819636        1.2027114077
 C          4.7765262060       -2.6192088844        0.3664246997
 C          5.5048937228       -1.3537978107       -0.1093116953
 H          6.5624852668       -1.4349287851        0.1488252952
 H          5.1109557914       -0.4778223517        0.4091592977
 C          5.4070098124       -1.1388255522       -1.6215953467
 H          5.5660976212       -2.0960526819       -2.1229469980
 H          6.2130003313       -0.4698727828       -1.9328647436
 C          4.0960440980       -0.5270484964       -2.1139348014
 H          4.1197637968       -0.5187681871       -3.2062896661
 H          4.0321851778        0.5148749870       -1.7877278651
 C          2.8163828431       -1.2458010293       -1.6533180145
 H          2.9710805860       -2.3207957562       -1.6099035401
 H          2.0295808762       -1.0311012879       -2.3804842863
 H          4.5250715824       -3.2305621549       -0.4990412301
 H          5.4494290372       -3.2150811764        0.9855091725
 H          3.7934963608       -2.2352240470        2.2515699918
 H          2.8665220765       -3.2423380301        1.1482243729
 O          2.2816312822       -0.5415826756        2.0152034504
 C          1.5755825538        0.6468501490        1.9963513732
 O          1.3271428627        1.1096052954        3.1291110271
 H         -1.6357210759        1.1017157177        1.7398838134
 C         -1.8658310108        1.5149708023        0.7648464907
 C         -0.9114888653        2.2933098190        0.1215745310
 C         -1.2094655648        2.8099348210       -1.1316554281
 C         -2.4300891364        2.5400880363       -1.7263648289
 C         -3.3794444309        1.7662145817       -1.0827001453
 C         -3.0930449575        1.2555745556        0.1761711247
 N         -4.0569675834        0.4621786860        0.8422987469
 S         -4.3659308322       -1.0221027752        0.1302794089
 O         -5.0491639430       -0.8079564432       -1.1188894931
 O         -5.0774590861       -1.7905725462        1.1265243876
 C         -2.7554821696       -1.7298047481       -0.1610770126
 C         -2.1271926614       -2.3839740363        0.8797945194
 C         -0.8557171514       -2.8950954653        0.6792902614
 C         -0.2375708505       -2.7399008771       -0.5516971817
 C         -0.8777403502       -2.0713376888       -1.5830616845
 C         -2.1478485359       -1.5548001402       -1.3873756307
 H         -2.6773598797       -1.0280455421       -2.1642334667
 H         -0.3887510133       -1.9417684312       -2.5346095442
 H          0.7501495981       -3.1420647878       -0.7085954560
 H         -0.3506109115       -3.4085341070        1.4822616298
 H         -2.6471369954       -2.4968712911        1.8181006621
 H         -3.8334656212        0.3147737946        1.8171492199
 H         -4.3287590370        1.5354226251       -1.5384249815
 H         -2.6449255678        2.9364868267       -2.7070757219
 H         -0.4720314161        3.3981692572       -1.6523666846
 C          0.4140895875        2.4865437861        0.8119069854
 H          0.2108986103        2.6489419243        1.8827858504
 C          1.1738545543        3.7134829375        0.3318995298
 C          2.6410988986        3.8521901340        0.6080708304
 C          2.1546326425        3.6963397335       -0.7997765197
 H          2.1917536667        4.5588286447       -1.4494603531
 H          2.3276353474        2.7623757379       -1.3083452265
 H          3.1377133656        3.0122214249        1.0730604518
 H          3.0205635514        4.8125499144        0.9231629015
 H          0.5772571303        4.6146553368        0.4388756927
 O          0.9819533423        0.8272022301       -1.5620865113
