  62
        -98.93106805
 C          2.2779553578        0.8175010045       -0.2816407772
 C          3.6207294243        1.2298937476       -0.0803688906
 C          4.6606980024        0.2775612170       -0.4796517504
 C          4.3074037175       -0.9013217381       -1.0226937165
 C          5.2481193200       -1.9724028932       -1.5043391244
 C          5.7441989665       -2.9108892052       -0.3956553252
 C          6.7573291595       -2.2969212345        0.5713429090
 H          7.1805232991       -3.1170587329        1.1546698663
 H          7.5722169107       -1.8466872123        0.0037550221
 C          6.1646927788       -1.2601193952        1.5358902357
 H          5.0773531816       -1.3638884689        1.5594929199
 H          6.5265863288       -1.4555153643        2.5478090751
 C          6.5156415152        0.1897565888        1.2016388383
 H          7.5929244972        0.3387578993        1.3020447998
 H          6.0164983839        0.8387925225        1.9255100849
 C          6.0902801422        0.6344451690       -0.2039435893
 H          6.7440995983        0.1897147850       -0.9537590470
 H          6.1784663267        1.7219823024       -0.2617065565
 H          6.2125142635       -3.7697295898       -0.8819736180
 H          4.8801210858       -3.2762014646        0.1641646160
 H          4.6946617577       -2.5651830082       -2.2357868971
 H          6.1017775597       -1.5128799866       -2.0032743875
 O          3.0103676258       -1.2544906530       -1.2167627386
 C          1.9617965975       -0.4199572426       -0.8428809088
 O          0.8386686929       -0.9081554566       -1.0654790505
 O          3.9325200426        2.3468728496        0.4126718838
 C          1.1878538851        1.7982067762        0.1365007789
 C          0.1610914563        1.1039719981        0.9911577086
 C          0.4669608983        0.9465498368        2.3424612817
 C         -0.3746756522        0.2601195153        3.1970619150
 C         -1.5626038280       -0.2710296310        2.7293030569
 C         -1.8818163601       -0.1179644675        1.3860826736
 C         -1.0228407701        0.5497477390        0.5268402198
 H         -1.2892805651        0.5852190971       -0.5135994824
 N         -3.1161862347       -0.6191706819        0.9087655008
 S         -3.7907745057       -0.0277917537       -0.5009188524
 O         -3.2772379110       -0.6875341389       -1.6835112674
 O         -3.7023297740        1.4101815426       -0.4633610851
 C         -5.4816110442       -0.5317376882       -0.2365531937
 C         -5.9558264214       -1.6823434966       -0.8362412052
 C         -7.2618567768       -2.0781820486       -0.5927966714
 C         -8.0675260929       -1.3211261405        0.2438664999
 C         -7.5784198549       -0.1673745777        0.8384831061
 C         -6.2737086314        0.2324958198        0.5987858527
 H         -5.8517100737        1.1242728386        1.0321277325
 H         -8.2085811206        0.4204436241        1.4863555048
 H         -9.0834391828       -1.6309559099        0.4316154046
 H         -7.6448580514       -2.9733494822       -1.0559805701
 H         -5.2967220318       -2.2343465422       -1.4872953242
 H         -3.2354039750       -1.6153033171        1.0118639438
 H         -2.2321565458       -0.8041626696        3.3850894901
 H         -0.1058455578        0.1439805756        4.2360778736
 H          1.3944627419        1.3593823437        2.7158547706
 H          1.7137044772        2.5065059478        0.7974415299
 C          0.7527015410        2.6345447802       -1.0609112828
 C         -0.0112017325        2.1332916514       -2.2486423737
 C         -0.6344880595        3.1362408336       -1.3229233752
 H         -0.7433335816        4.1505626711       -1.6786711023
 H         -1.4440325528        2.8108462701       -0.6880816116
 H          0.3074552219        2.4660383592       -3.2270706404
 H         -0.3690473283        1.1152221236       -2.2474473243
 H          1.5504820251        3.3320004486       -1.3082405365
