  62
        -98.93938329
 C         -1.8017251668       -0.0668512518        0.8332246758
 C         -1.8379865405        0.5487945523       -0.4404640168
 C         -1.3827180046        1.9545332445       -0.5181059734
 C         -0.9556132888        2.5665159322        0.6006900908
 C         -0.4432692352        3.9732650506        0.7789111018
 C          0.9824169596        4.1748412164        0.2492638302
 C          1.2229251972        3.6365503973       -1.1581791155
 H          2.2742188150        3.8113251793       -1.4052253621
 H          1.0727635693        2.5552015553       -1.1766834556
 C          0.3714338970        4.2814602133       -2.2500429392
 H          0.5032707302        5.3654743632       -2.2180146913
 H          0.7621556138        3.9265541790       -3.2071459055
 C         -1.1269845844        3.9623106578       -2.2096843254
 H         -1.5339191369        4.1896496354       -3.1991469204
 H         -1.6547486431        4.6016352617       -1.5058631914
 C         -1.4510697171        2.4997108643       -1.9227352322
 H         -2.4703501015        2.2887428939       -2.2678044642
 H         -0.8019702680        1.8547226493       -2.5278343509
 H          1.2053039314        5.2436343419        0.2714042224
 H          1.6785730887        3.6728151406        0.9261591481
 H         -1.1228834631        4.6815603153        0.3141011520
 H         -0.4448034026        4.1677561750        1.8541525363
 O         -0.9214871047        1.9252151760        1.8066699638
 C         -1.3036205926        0.6055148264        1.9494467005
 O         -1.1548344539        0.1496958070        3.1011111567
 H          0.4036531713       -1.4138890643        0.4463688114
 C         -0.0927057759       -2.1206388620       -0.2027881423
 C         -1.4557714028       -2.3387591548       -0.0443861951
 C         -2.0802367623       -3.2587185328       -0.8746727826
 C         -1.3546830999       -3.9167556621       -1.8536442308
 C         -0.0096190762       -3.6563378283       -2.0407183107
 C          0.6249518144       -2.7392882152       -1.2103281216
 N          1.9865902930       -2.4279971163       -1.3582868194
 S          2.4667442308       -0.8312265382       -1.1767974576
 O          1.4515602932        0.0958394578       -1.6142772154
 O          3.7341017202       -0.7607312169       -1.8756608077
 C          2.7682073381       -0.6539395817        0.5680512826
 C          2.1834631953        0.3914342333        1.2538221052
 C          2.4236537342        0.5259380017        2.6114012340
 C          3.2480006012       -0.3835331573        3.2556943933
 C          3.8360464260       -1.4239166326        2.5516804084
 C          3.5964814035       -1.5640046457        1.1940923620
 H          4.0328958197       -2.3593117130        0.6132887137
 H          4.4759950849       -2.1277796488        3.0589770271
 H          3.4283742673       -0.2796648967        4.3139593711
 H          1.9504900227        1.3264946026        3.1579670464
 H          1.5358324042        1.0677992533        0.7174625713
 H          2.4370207632       -2.8625922736       -2.1508445424
 H          0.5440588912       -4.1467410796       -2.8271239998
 H         -1.8512174411       -4.6265303236       -2.4980908857
 H         -3.1377436352       -3.4415814709       -0.7771453273
 C         -2.1531216175       -1.5337764411        1.0251469175
 H         -1.6998746515       -1.8030078690        1.9943034823
 C         -3.6394799454       -1.8305379591        1.1484694596
 C         -4.6031399518       -0.7740411605        1.5981479897
 C         -4.6510349942       -1.2813255320        0.1897183058
 H         -5.4793177240       -1.9128277692       -0.0975162509
 H         -4.2897397481       -0.6449647556       -0.6020587724
 H         -5.3938478832       -1.0565430522        2.2770364464
 H         -4.2116218073        0.2181341853        1.7712415462
 H         -3.8211897948       -2.8324814952        1.5252902545
 O         -2.2397289190       -0.0298858678       -1.4830069852
