  62
        -98.93599587
 C          2.7366523240        1.1284071574       -0.2754321727
 C          2.4849475788       -0.0097512351       -1.0806097532
 C          3.3468453004       -1.1738495591       -0.8271879441
 C          4.2955680412       -1.1191398637        0.1238559887
 C          5.2513463510       -2.2215852090        0.4906813384
 C          4.6691659455       -3.2490496263        1.4712555372
 C          3.6294069029       -4.1998956809        0.8768195603
 H          4.0335424624       -4.6591821744       -0.0258490567
 H          3.4719213278       -4.9973367959        1.6056959524
 C          2.2767672813       -3.5453678185        0.5626814724
 H          2.1982757290       -2.5951516181        1.0964947409
 H          1.4699116766       -4.1844168468        0.9283181004
 C          2.0226917411       -3.3009770350       -0.9247702813
 H          1.0538605429       -2.8065668967       -1.0305194947
 H          1.9712569753       -4.2573371466       -1.4497439430
 C          3.0786903368       -2.4242178804       -1.6103785264
 H          4.0005153660       -2.9875105460       -1.7525783941
 H          2.6945554495       -2.1272372650       -2.5893980538
 H          5.5020431521       -3.8464176534        1.8491981169
 H          4.2326275866       -2.7145894720        2.3182467780
 H          5.5907383575       -2.7294368172       -0.4125207313
 H          6.1108527920       -1.7422487574        0.9641030468
 O          4.5084558676       -0.0067764785        0.8759257821
 C          3.7350591553        1.1274298194        0.7041420067
 O          4.0341711650        2.0675969269        1.4673553574
 O          1.5942920215       -0.0769110204       -1.9676308344
 C          1.9537382818        2.4262689799       -0.3991300448
 C          0.6800622545        2.3665153231        0.4046076847
 C          0.3781799511        3.3432989252        1.3451583466
 C         -0.7999585890        3.2812167252        2.0697185463
 C         -1.6972297866        2.2468296672        1.8738751903
 C         -1.4038011511        1.2646210748        0.9361504203
 C         -0.2237216818        1.3307106999        0.2096091293
 H         -0.0014791702        0.5724063072       -0.5273996625
 N         -2.2991623826        0.1903057216        0.7330929777
 S         -3.8780013511        0.6160273192        0.2996799982
 O         -3.8633649233        1.4326915014       -0.8949599601
 O         -4.5265755620        1.1947212184        1.4486925703
 C         -4.5738494834       -0.9858234921       -0.0472672236
 C         -5.0217724543       -1.7550516072        1.0094988241
 C         -5.5388095364       -3.0138621004        0.7486145829
 C         -5.5969613742       -3.4800686890       -0.5564950736
 C         -5.1434917456       -2.6959970100       -1.6064926731
 C         -4.6243732356       -1.4361070437       -1.3523999550
 H         -4.2682138197       -0.7898225886       -2.1389150262
 H         -5.1916179809       -3.0599636943       -2.6202350814
 H         -6.0004620884       -4.4599131222       -0.7574908179
 H         -5.8941708189       -3.6262747432        1.5615448730
 H         -4.9636920333       -1.3479457363        2.0053152059
 H         -1.9353367443       -0.4454783402        0.0338016200
 H         -2.6229078631        2.1956039532        2.4232393236
 H         -1.0227969758        4.0471979133        2.7972271508
 H          1.0777419165        4.1493723119        1.5131787722
 H          2.5978481325        3.1926443963        0.0595738123
 C          1.7246102799        2.8371605880       -1.8490229715
 C          0.3772524619        2.9147242364       -2.4966739753
 C          1.1158600580        4.1727192418       -2.1589911678
 H          1.5357799402        4.7622851562       -2.9597628564
 H          0.7495467427        4.7545941528       -1.3262472904
 H          0.3047846544        2.6155854682       -3.5314298578
 H         -0.4967974335        2.6650513615       -1.9146011486
 H          2.5404636981        2.5193187071       -2.4903002901
