  62
        -98.94127426
 C         -1.8716674395        0.5885685547       -0.0157278816
 C         -2.5912934152        0.0709181129       -1.1227783258
 C         -3.6950044458       -0.8463425414       -0.8107526884
 C         -3.9158582332       -1.1939355087        0.4698839614
 C         -5.0385637338       -2.0722257531        0.9388485479
 C         -6.2805835624       -1.2425955092        1.2940671821
 C         -6.6807812180       -0.2345846344        0.2165468910
 H         -7.5858650142        0.2689832619        0.5628867131
 H         -5.9019967427        0.5270980067        0.1340766372
 C         -6.9356628250       -0.8500880888       -1.1665116056
 H         -7.0958665832       -1.9245251198       -1.0699602076
 H         -7.8523372789       -0.4214205548       -1.5770012276
 C         -5.8272095704       -0.5935177313       -2.1891898593
 H         -5.6001360944        0.4751236564       -2.2225683164
 H         -6.2021875333       -0.8785926753       -3.1757216221
 C         -4.5176730763       -1.3584317939       -1.9594392339
 H         -4.7300734823       -2.4226494651       -1.8373700090
 H         -3.8975770264       -1.2319478817       -2.8519232338
 H         -7.1102784927       -1.9268361301        1.4805211206
 H         -6.0781960006       -0.6947119470        2.2173787287
 H         -5.2803988146       -2.7922516883        0.1592418766
 H         -4.7054105209       -2.6110071271        1.8276063742
 O         -3.1536730504       -0.7442106959        1.4974329225
 C         -2.1173440233        0.1600547685        1.2901132182
 O         -1.5143240698        0.4783888648        2.3303996284
 H          0.5477067689       -0.7102527451       -0.6317862911
 C          1.0482946906       -0.0880661511        0.1003712940
 C          0.5082489791        1.1548275473        0.4110958272
 C          1.1601104027        1.9438854709        1.3484611459
 C          2.3062726852        1.4847879634        1.9747838486
 C          2.8303566652        0.2413295302        1.6764174751
 C          2.1928506339       -0.5514141919        0.7296238204
 N          2.7257809222       -1.8108865880        0.4083085590
 S          4.3801146030       -1.9365745260        0.1961288809
 O          4.5612162299       -3.0511141218       -0.7077806367
 O          5.0291729994       -2.0569381395        1.4778523965
 C          4.8699442543       -0.4095816418       -0.5865099837
 C          4.3066974026       -0.0945821555       -1.8073629446
 C          4.6487581287        1.1025358357       -2.4144845495
 C          5.5444109501        1.9601098503       -1.7938066800
 C          6.1063463272        1.6265036691       -0.5715294994
 C          5.7657522206        0.4312796850        0.0415551989
 H          6.1757682051        0.1342546077        0.9930359103
 H          6.8044554610        2.2938535164       -0.0925540939
 H          5.8056529643        2.8930251075       -2.2677234541
 H          4.2131639036        1.3627364768       -3.3658817338
 H          3.6173992505       -0.7848578892       -2.2670347596
 H          2.2199810767       -2.3038032833       -0.3121414046
 H          3.7096619852       -0.1369782987        2.1719750624
 H          2.7948753958        2.1024553594        2.7126651960
 H          0.7559161968        2.9072244613        1.6110373700
 C         -0.7507161598        1.5706319429       -0.3069367246
 H         -0.5717117291        1.4582794769       -1.3896127339
 C         -1.1226467205        3.0288322674       -0.0843355894
 C         -2.5434424497        3.4893322593       -0.2093958855
 C         -1.8689229408        3.4958725063        1.1279626011
 H         -1.5991927843        4.4491816041        1.5586782349
 H         -2.1560440616        2.7542450309        1.8564492380
 H         -3.2980319034        2.7388948667       -0.3967912766
 H         -2.7376561453        4.4334988105       -0.6957462866
 H         -0.3661237465        3.7013679833       -0.4767587959
 O         -2.3176508828        0.3594744080       -2.3189391082
