  62
        -98.94892381
 C         -2.2339695971       -0.8556408626        0.0783885506
 C         -1.5874685365       -0.1182184864       -0.9423537966
 C         -1.9918471708        1.2874161340       -1.0751120609
 C         -2.8960509267        1.7955397286       -0.2187048546
 C         -3.4029794144        3.2083848851       -0.2405873087
 C         -2.5764540860        4.1304353077        0.6647853573
 C         -1.0668418841        4.0284926692        0.4460041255
 H         -0.5934683032        4.7655901332        1.0994895609
 H         -0.7139733530        3.0473367692        0.7726361784
 C         -0.6134063063        4.2640389199       -1.0014148994
 H         -1.3945121407        4.7837548146       -1.5586740220
 H          0.2648537824        4.9130408608       -0.9874243385
 C         -0.2120394184        2.9876197528       -1.7433524154
 H          0.3451619904        3.2721533093       -2.6402062052
 H          0.4575144711        2.4042000130       -1.1062080467
 C         -1.3699186939        2.0839593153       -2.1871952382
 H         -0.9688558689        1.3500211932       -2.8923841360
 H         -2.1256804077        2.6802087220       -2.7039146741
 H         -2.9009786273        5.1590878227        0.4935784427
 H         -2.7879981754        3.8767069357        1.7063336369
 H         -4.4366215087        3.2037955253        0.1110639881
 H         -3.3803733899        3.5760472452       -1.2648825873
 O         -3.4495491696        1.0724141433        0.7899333836
 C         -3.1237706246       -0.2616051459        0.9704400094
 O         -3.6861031600       -0.8033133411        1.9464152644
 O         -0.7314295797       -0.6160384492       -1.7192990718
 C         -1.9126230960       -2.3299964044        0.2645892084
 C         -0.4218082402       -2.4908663705        0.4248226044
 C          0.3468204766       -3.3903749017       -0.3023084764
 C          1.7246148967       -3.4112687213       -0.1655690321
 C          2.3644307611       -2.5239903373        0.6809741115
 C          1.6002369883       -1.6427597690        1.4330687011
 C          0.2215074390       -1.6496072232        1.3247097498
 H         -0.3643664983       -0.9458640332        1.9044384792
 N          2.2681640226       -0.6646222094        2.2310817148
 S          2.2760228498        0.8165817685        1.4110641501
 O          3.0153864781        1.7302776687        2.2572305225
 O          0.9327480633        1.2397189452        1.0786614417
 C          3.2111123954        0.4306722486       -0.0485058556
 C          4.5881536580        0.5192556518        0.0216856418
 C          5.3394373258        0.1732449747       -1.0892897951
 C          4.7026392192       -0.2586531021       -2.2434684202
 C          3.3200231634       -0.3431019668       -2.2953563414
 C          2.5597656973        0.0019965185       -1.1881189015
 H          1.4820354980       -0.0650843354       -1.2038590497
 H          2.8195526925       -0.6820430299       -3.1880945181
 H          5.2865844601       -0.5317027518       -3.1083568677
 H          6.4149180300        0.2382366411       -1.0514361373
 H          5.0340750733        0.8627216214        0.9406662569
 H          1.8131023090       -0.5152501975        3.1228418829
 H          3.4385623876       -2.4984095425        0.7656179533
 H          2.3080660571       -4.1089901141       -0.7458880949
 H         -0.1333144681       -4.0628468396       -0.9941897415
 H         -2.4028219186       -2.6350429208        1.2007161351
 C         -2.4905901068       -3.1366722143       -0.8795299784
 C         -2.8789073563       -4.5692529449       -0.6732119551
 C         -3.9377225977       -3.5212636139       -0.8346100387
 H         -4.5064657811       -3.4961798319       -1.7519123434
 H         -4.5025896203       -3.2205313340        0.0360649324
 H         -2.7253783161       -5.2675055194       -1.4819091173
 H         -2.7308984169       -4.9908465171        0.3094490135
 H         -2.0803569899       -2.8476094629       -1.8403029369
