  62
        -98.94255909
 C         -1.4903178687       -1.4234365643        0.2737500748
 C         -1.9749784929       -0.9237012843       -0.9599989137
 C         -2.8805257063        0.2325439768       -0.8675887887
 C         -3.2140039351        0.7194785985        0.3414017161
 C         -4.0735036598        1.9283272444        0.5710016439
 C         -3.2230728553        3.2026530093        0.6678321750
 C         -2.1967113143        3.3465312230       -0.4561255982
 H         -1.6680547634        4.2891508906       -0.2982460396
 H         -1.4576711996        2.5458802367       -0.3702762567
 C         -2.8003391521        3.3336021400       -1.8679163592
 H         -2.3414474014        4.1338912527       -2.4525866005
 H         -3.8692005207        3.5438747508       -1.8152943442
 C         -2.5808017884        2.0341208780       -2.6451529178
 H         -1.5188514541        1.7732463191       -2.6329772510
 H         -2.8585436767        2.2114126038       -3.6876650705
 C         -3.3808332406        0.8193818553       -2.1574008707
 H         -4.4379211240        1.0813260596       -2.0812651018
 H         -3.2753646849        0.0299062498       -2.9075462074
 H         -2.6905800429        3.1881110172        1.6209483486
 H         -3.8908159948        4.0659226983        0.6645170644
 H         -4.6160453535        1.7921099352        1.5078921302
 H         -4.7912437332        2.0178296215       -0.2420356530
 O         -2.7610310471        0.1873244914        1.5040883152
 C         -1.8858464033       -0.8869446141        1.5001885682
 O         -1.5400087655       -1.2718790672        2.6337975785
 O         -1.6610783452       -1.3987109478       -2.0830215366
 C         -0.5168313903       -2.5813049246        0.3204645083
 C          0.8351200483       -2.2492865445       -0.2711211794
 C          1.8190481138       -3.2312043517       -0.3566898983
 C          3.0801900032       -2.9357311684       -0.8411609698
 C          3.3918884468       -1.6543680748       -1.2631751169
 C          2.4147697342       -0.6744032343       -1.1990541513
 C          1.1555991684       -0.9687716858       -0.6938670538
 H          0.4150071200       -0.1818936717       -0.6343284657
 N          2.7373769366        0.6465057816       -1.6067066249
 S          3.5065037161        1.5328387488       -0.4092155515
 O          3.6464966262        2.8746463657       -0.9257577023
 O          4.7214457397        0.8476619866       -0.0530377367
 C          2.3592637403        1.5167989457        0.9557361000
 C          1.4324433315        2.5344946149        1.0585398482
 C          0.4725774866        2.4682170930        2.0556713531
 C          0.4433164981        1.3804354551        2.9144304659
 C          1.3778963632        0.3637464301        2.7943803748
 C          2.3471409664        0.4288055471        1.8064473151
 H          3.0920391401       -0.3411587539        1.6843115449
 H          1.3340007023       -0.4862334901        3.4558137998
 H         -0.3195352435        1.3090697521        3.6737522018
 H         -0.2530817263        3.2598923717        2.1543652750
 H          1.4851083657        3.3597921679        0.3660097936
 H          1.9292709576        1.1669907760       -1.9198282333
 H          4.3723615016       -1.3967688049       -1.6282510111
 H          3.8303395123       -3.7098824604       -0.8905034285
 H          1.5908813897       -4.2343165488       -0.0332491122
 H         -0.3632993236       -2.7988015482        1.3879993708
 C         -1.1110288784       -3.8151836798       -0.3392710122
 C         -0.9227099567       -5.1736064019        0.2637593347
 C         -2.2629161578       -4.5069103230        0.3243547914
 H         -3.0635947131       -4.8852731481       -0.2929952107
 H         -2.5936943621       -4.1134536561        1.2750515764
 H         -0.7989941303       -6.0173797773       -0.3981061081
 H         -0.3634966160       -5.2463578914        1.1846853119
 H         -1.1369543944       -3.7372835130       -1.4196276307
