  62
        -98.93505919
 C         -1.9424006198       -0.0573393204        0.0753709504
 C         -2.9310247597        0.9201016299       -0.1954740387
 C         -4.2690390998        0.4292363403       -0.5637351191
 C         -4.4900378299       -0.8952696397       -0.6178462402
 C         -5.7506575199       -1.6264406593       -1.0075913207
 C         -7.0835197199       -1.0747280796       -0.4855400602
 C         -7.0190682797       -0.4379452908        0.9103699604
 H         -7.8005366497       -0.8733491713        1.5358537700
 H         -6.0609285297       -0.6643188613        1.3813307001
 C         -7.2284801197        1.0779699892        0.8853008417
 H         -8.0462145497        1.3077671698        0.1986981019
 H         -7.5358318496        1.4073227784        1.8809074220
 C         -6.0021319796        1.9019431495        0.4948912323
 H         -5.2559962396        1.8575267788        1.2929556522
 H         -6.3123916296        2.9459600496        0.4062618232
 C         -5.3107708097        1.4819569205       -0.8124652481
 H         -6.0363942198        1.1625072212       -1.5566408783
 H         -4.7728332497        2.3508876408       -1.2016455974
 H         -7.4779079399       -0.3448427390       -1.1910478995
 H         -7.7860890599       -1.9098406096       -0.4729027408
 H         -5.7885145900       -1.6778330383       -2.0998093208
 H         -5.6099016599       -2.6469890596       -0.6432550616
 O         -3.5136827399       -1.8034168600       -0.3395462110
 C         -2.2255380598       -1.4220558403        0.0089554892
 O         -1.4589888099       -2.3804958305        0.2185391984
 O         -2.7021095697        2.1591175998       -0.1392309977
 C         -0.5619763897        0.4311226392        0.4594055107
 C          0.4637474502        0.3141816101       -0.6474385494
 C          0.2461203701       -0.4134027989       -1.8101658300
 C          1.2193464100       -0.4805225981       -2.7919796102
 C          2.4312446101        0.1647461517       -2.6312111497
 C          2.6610290202        0.9002289007       -1.4738437891
 C          1.6763532303        0.9769448899       -0.4996878390
 H          1.8683834703        1.5681835591        0.3809775715
 N          3.8750563902        1.5830464305       -1.2871579886
 S          4.7186717703        1.4066714892        0.1483272812
 O          3.9739058704        1.9936680183        1.2311624018
 O          6.0198603403        1.9755433994       -0.1205312484
 C          4.8588643002       -0.3583488210        0.3599786297
 C          3.8296829202       -1.0532751214        0.9633782992
 C          3.9145393902       -2.4343652615        1.0452644180
 C          5.0200532601       -3.0924157711        0.5287240574
 C          6.0476738201       -2.3790711707       -0.0700286421
 C          5.9653814402       -0.9993784806       -0.1627646309
 H          6.7423278902       -0.4054718503       -0.6164826104
 H          6.9076380600       -2.8939460704       -0.4671648725
 H          5.0797006200       -4.1673491612        0.5950906365
 H          3.1120612602       -2.9884916719        1.5061223676
 H          2.9845190203       -0.5135858417        1.3568192297
 H          4.5079348702        1.5164752311       -2.0715522687
 H          3.1887221100        0.1094627023       -3.3980081298
 H          1.0305766800       -1.0483273274       -3.6904572906
 H         -0.6916860499       -0.9305742687       -1.9461011404
 H         -0.6835057796        1.5034372990        0.6737448316
 C         -0.0604909597       -0.2536980519        1.7206825901
 C          0.7278829604        0.4996701372        2.7481548907
 C         -0.6879191296        0.1016817070        3.0348530704
 H         -0.8734451496       -0.6858000436        3.7494966798
 H         -1.4443188995        0.8734414671        3.0302844211
 H          1.5188486904       -0.0152183833        3.2734482202
 H          0.9357154205        1.5450276573        2.5738202816
 H          0.1839912203       -1.2966379818        1.5584142492
