  62
        -98.93206208
 C          2.7659448976        0.3947698494        0.0185860126
 C          2.2501385639       -0.4627309368       -0.9828983899
 C          2.1565156126       -1.9019855397       -0.6443436650
 C          2.6143857639       -2.3287991208        0.5452982267
 C          2.6160710825       -3.7230195126        1.1168778348
 C          1.2338880217       -4.1676906527        1.6126342228
 C          0.0922257146       -3.9206131869        0.6308079417
 H         -0.8331716002       -4.2476849037        1.1128841311
 H         -0.0092099156       -2.8495430059        0.4443345667
 C          0.2088473458       -4.6627184428       -0.6990633689
 H          0.3152499224       -5.7328642417       -0.5064688964
 H         -0.7340195982       -4.5105620768       -1.2305863257
 C          1.3434501596       -4.2143925913       -1.6256119839
 H          2.2928875914       -4.6629066251       -1.3436870162
 H          1.1107108644       -4.5861042912       -2.6278198734
 C          1.5004804823       -2.7020001712       -1.7430010577
 H          2.0717915942       -2.4738480505       -2.6509633522
 H          0.5150434034       -2.2451848849       -1.9005411803
 H          1.0098380973       -3.6210492186        2.5319887942
 H          1.2842080171       -5.2314642825        1.8541554156
 H          3.0065214293       -4.4284927620        0.3895259711
 H          3.3018039555       -3.7063673080        1.9672956624
 O          3.1641826898       -1.4715983564        1.4556094675
 C          3.2080460540       -0.1103418857        1.2423342254
 O          3.6794826735        0.5440892969        2.1963235712
 H          0.2670362941        0.9546320600       -0.2896564364
 C          0.3113429693        1.8424891993        0.3206944482
 C          1.5282290026        2.4773543416        0.5238915533
 C          1.5587514865        3.6256643884        1.3059441372
 C          0.3929774023        4.1285055259        1.8576219574
 C         -0.8163332821        3.4890436465        1.6572263478
 C         -0.8541276611        2.3246205783        0.8951499861
 N         -2.0536278548        1.6129207918        0.7478296269
 S         -2.2264664340        0.3978551007       -0.4035996387
 O         -1.3943749896       -0.7175451977       -0.0342281666
 O         -2.0587486802        0.9369313452       -1.7350088348
 C         -3.9393498059       -0.0138857758       -0.1301551903
 C         -4.2549217233       -0.8870214923        0.8933428140
 C         -5.5866205796       -1.1870488249        1.1322076672
 C         -6.5756532905       -0.6112842078        0.3484666957
 C         -6.2440054615        0.2613266030       -0.6770271752
 C         -4.9137773495        0.5656199181       -0.9204809164
 H         -4.6076031968        1.2293639803       -1.7130819090
 H         -7.0146569642        0.7042839958       -1.2869942260
 H         -7.6112626959       -0.8469000058        0.5361110869
 H         -5.8476165894       -1.8677030155        1.9264333374
 H         -3.4508578151       -1.3150953529        1.4693104190
 H         -2.8846297150        2.1774772506        0.8487633805
 H         -1.7226524108        3.8744448970        2.0978789266
 H          0.4276509571        5.0253747633        2.4572274793
 H          2.5037859209        4.1143277414        1.4924674108
 C          2.7863679451        1.9109576003       -0.0891261529
 H          3.6324864185        2.2422950843        0.5354934458
 C          3.0328656303        2.4285640730       -1.4982507016
 C          1.9430082795        2.9586434762       -2.3752906752
 C          2.9541298856        3.8976008865       -1.7936597592
 H          3.6941847932        4.3291467290       -2.4503663485
 H          2.6277689040        4.5525076011       -1.0004684409
 H          1.9877199432        2.7205666932       -3.4269667319
 H          0.9368989555        2.9687490827       -1.9836572323
 H          3.8204622387        1.8730118843       -1.9968209357
 O          1.8774691712       -0.0792493658       -2.1220660782
