  62
        -98.94349048
 C         -1.9744655100       -0.7911385650        0.5422284034
 C         -2.1172749918       -0.1200103258       -0.6959967022
 C         -2.3427670110        1.3273154199       -0.6125592100
 C         -2.3466363791        1.9361098648        0.5869552761
 C         -2.5173655475        3.4113481221        0.8307866325
 C         -3.9794782576        3.8777773047        0.8623224959
 C         -4.6824473714        3.9080333230       -0.4953619332
 H         -5.6172724355        4.4552779114       -0.3593349001
 H         -4.0745279849        4.4709539492       -1.2041151231
 C         -5.0008057532        2.5223031282       -1.0737753364
 H         -4.9359626870        1.7734481664       -0.2810953083
 H         -6.0281750449        2.5093932028       -1.4443214064
 C         -4.0963837720        2.0955130911       -2.2298899233
 H         -4.2476771986        2.7640371184       -3.0801664549
 H         -4.3852311921        1.0873346441       -2.5370330571
 C         -2.6010731360        2.0740963632       -1.8862609825
 H         -2.0695148792        1.5527248057       -2.6861871632
 H         -2.2142299609        3.0905883241       -1.8153506056
 H         -4.5354565501        3.2333732285        1.5471652730
 H         -3.9887071980        4.8889107237        1.2757529120
 H         -2.0665448553        3.6171125032        1.8042455498
 H         -1.9686885696        3.9704583383        0.0721594975
 O         -2.1702690239        1.2594050284        1.7543371721
 C         -1.9855738425       -0.1134957626        1.7595467332
 O         -1.8466927572       -0.6094650173        2.8987487923
 H          0.5111022163       -0.7957547550        0.4761358585
 C          0.6243346341       -1.7019496447       -0.1016213102
 C         -0.4322349542       -2.5997606450       -0.1814190974
 C         -0.2569627147       -3.7654756713       -0.9166045260
 C          0.9440589077       -4.0123877551       -1.5593768033
 C          1.9876733409       -3.1089506335       -1.4882276268
 C          1.8197793269       -1.9351508627       -0.7598310878
 N          2.8399368717       -0.9709094188       -0.7188786697
 S          2.8647771666        0.2123120676        0.4751543088
 O          2.8378614118       -0.3926288250        1.7897407134
 O          1.8416611716        1.1888391431        0.1934991561
 C          4.4715830743        0.9192943101        0.1627045599
 C          4.6041959205        1.8264713773       -0.8716827030
 C          5.8550876344        2.3592232274       -1.1396149137
 C          6.9469040962        1.9777186568       -0.3737546554
 C          6.7983369781        1.0679602613        0.6621907993
 C          5.5499467976        0.5304414093        0.9346269504
 H          5.3837028265       -0.1727040051        1.7348553747
 H          7.6478918461        0.7759977123        1.2581178393
 H          7.9190669208        2.3947435402       -0.5838181371
 H          5.9733771868        3.0690560474       -1.9422951854
 H          3.7247395924        2.0983191578       -1.4321442941
 H          3.7586877515       -1.3413586059       -0.9163946958
 H          2.9193678349       -3.2994715075       -1.9980287302
 H          1.0681861966       -4.9228786293       -2.1257378586
 H         -1.0614207816       -4.4793138060       -0.9870317733
 C         -1.7083341042       -2.2838064530        0.5641321033
 H         -1.5552808741       -2.5504767240        1.6215486990
 C         -2.9093598355       -3.0429319818        0.0358792939
 C         -3.2630889636       -4.3898339241        0.5889686383
 C         -4.1094638589       -3.1984901641        0.9193512072
 H         -5.0907380962       -3.1198718063        0.4761444670
 H         -4.0452634902       -2.7835481099        1.9152448569
 H         -3.6682987510       -5.1323995565       -0.0818395181
 H         -2.6336653566       -4.7920173452        1.3686092708
 H         -3.0834371568       -2.8569793725       -1.0176515633
 O         -2.0563087056       -0.6971651379       -1.8133082891
