  62
        -98.94459945
 C          2.0303629762        1.3345139635        0.0721670642
 C          2.5950680506        0.6012029525        1.1435548415
 C          3.8513875976       -0.1016740410        0.8550217943
 C          4.3758955883       -0.0275551059       -0.3821079305
 C          5.6251675156       -0.7300621254       -0.8272542478
 C          5.3074320045       -2.1113135657       -1.4165628559
 C          4.3884344255       -2.9601830007       -0.5380255676
 H          3.4035863497       -2.4888312799       -0.4925129070
 H          4.2586836857       -3.9228891703       -1.0373565342
 C          4.9084666439       -3.1897410548        0.8881022322
 H          4.7743312155       -4.2429602233        1.1439144920
 H          5.9778423296       -2.9801409584        0.9305340258
 C          4.1897274920       -2.3750223310        1.9652005084
 H          3.1095281213       -2.5100460255        1.8650902122
 H          4.4790317583       -2.7731418068        2.9414886227
 C          4.4901726862       -0.8706556677        1.9774145109
 H          5.5703638828       -0.7121704845        1.9875941304
 H          4.0734267635       -0.4568549389        2.9003736949
 H          4.8211293067       -1.9717031724       -2.3847967775
 H          6.2472679283       -2.6412960927       -1.5815324832
 H          6.1069189382       -0.1206392773       -1.5936675253
 H          6.3004908852       -0.8313260960        0.0201107201
 O          3.7935451372        0.6656301475       -1.3921108863
 C          2.6008224020        1.3498751081       -1.2011758616
 O          2.1712802864        1.9188588445       -2.2211187771
 O          2.0703460683        0.5362215295        2.2889739473
 C          0.7304267678        2.0841851531        0.3133560992
 C         -0.3760844963        1.4011200787       -0.4518562885
 C         -1.0827997473        1.9940736330       -1.4884871403
 C         -2.0623981406        1.2839467430       -2.1627892280
 C         -2.3666370452       -0.0176816584       -1.8111591111
 C         -1.6780123474       -0.6136706653       -0.7608711096
 C         -0.6944483940        0.0963043755       -0.0911634702
 H         -0.1524129662       -0.3687709947        0.7227931089
 N         -2.0029774151       -1.9260580650       -0.3760954297
 S         -3.6282682773       -2.2996246535       -0.2185436767
 O         -3.6824838078       -3.3504327765        0.7736296787
 O         -4.1767056819       -2.6281233445       -1.5108256105
 C         -4.3913648679       -0.8091799749        0.3988741029
 C         -3.9560392793       -0.3085137630        1.6099959773
 C         -4.5073622860        0.8702054389        2.0848238948
 C         -5.4797130446        1.5251515730        1.3443149244
 C         -5.9112208262        1.0058385659        0.1339157063
 C         -5.3615205674       -0.1717438618       -0.3471157365
 H         -5.6643226890       -0.6080263280       -1.2849873983
 H         -6.6691184063        1.5158346957       -0.4384387422
 H         -5.9029722026        2.4453604331        1.7148279701
 H         -4.1732032543        1.2745953244        3.0268768554
 H         -3.2009612012       -0.8428182982        2.1645337085
 H         -1.4721673828       -2.2641189906        0.4129913542
 H         -3.1177785726       -0.5861250495       -2.3352532857
 H         -2.5952500534        1.7516711861       -2.9763625720
 H         -0.8568547920        3.0059114567       -1.7800193785
 H          0.5231895948        1.9597392196        1.3860126192
 C          0.8713247642        3.5602239286        0.0144869177
 C         -0.0940731232        4.5325174553        0.6217231760
 C          1.3230747629        4.4822804979        1.1057141941
 H          1.9865312650        5.2950045886        0.8507471471
 H          1.5191622911        4.0491118346        2.0757831936
 H         -0.4055913281        5.3840047215        0.0363898311
 H         -0.8636948601        4.1337305796        1.2648568045
 H          1.2373757387        3.7573248392       -0.9859321565
