  62
        -98.93158408
 C         -2.3107856318       -1.2152825798        0.0892518124
 C         -2.2522832251       -0.0968318469       -0.7746232464
 C         -2.8613217211        1.1534119605       -0.2773696852
 C         -3.3907464190        1.1937060777        0.9583854756
 C         -4.0115661980        2.3301101138        1.7440175698
 C         -4.4340147008        3.6227522412        1.0504009050
 C         -5.6033453401        3.4746056265        0.0777083709
 H         -6.5069849195        3.2555340041        0.6518958413
 H         -5.7521478731        4.4328454714       -0.4246641257
 C         -5.4492515162        2.3799008380       -0.9749832801
 H         -5.4043557214        1.4047515616       -0.4856515391
 H         -6.3477846313        2.3865511410       -1.5978644554
 C         -4.2422197373        2.5275725006       -1.8991847191
 H         -4.3457111728        1.7861438433       -2.6959258428
 H         -4.2512762020        3.5170302954       -2.3601477079
 C         -2.8697449475        2.3070985324       -1.2390762352
 H         -2.1529203611        2.0548035863       -2.0260499183
 H         -2.5118002741        3.2114985573       -0.7524794884
 H         -3.5817712394        4.0800163789        0.5563055355
 H         -4.7469961746        4.3102866424        1.8409342354
 H         -4.8777680495        1.8985443171        2.2557352985
 H         -3.2844612702        2.5781061040        2.5256811716
 O         -3.3882345369        0.0977288964        1.7736671794
 C         -2.8644722770       -1.1138362892        1.3671530512
 O         -2.9548706041       -2.0208571927        2.2189940322
 H          0.2143031838       -0.8686878642       -0.9748272715
 C          0.5871481381       -1.6471968901       -0.3247459293
 C         -0.2829502466       -2.6334463524        0.1205717850
 C          0.2125117233       -3.6256352494        0.9569812931
 C          1.5436563362       -3.6255283772        1.3386974088
 C          2.4054800076       -2.6374660863        0.8969619349
 C          1.9176334251       -1.6411980685        0.0622145936
 N          2.7874772910       -0.6126603492       -0.3826544026
 S          3.1855581138        0.5179225370        0.8127706283
 O          3.6318874511       -0.1915112952        1.9841133326
 O          2.0894217261        1.4465364785        1.0033930498
 C          4.5626490195        1.3466436167        0.0436379108
 C          5.7854391566        0.7038420637        0.0254523582
 C          6.8577467251        1.3223077531       -0.5967272587
 C          6.6897266919        2.5654965658       -1.1887086295
 C          5.4560523791        3.1976638066       -1.1626904865
 C          4.3789447796        2.5834615593       -0.5425923096
 H          3.4033480345        3.0402126291       -0.4926752146
 H          5.3279714596        4.1645426789       -1.6222532914
 H          7.5257488116        3.0456739144       -1.6722648277
 H          7.8188923797        0.8345583391       -0.6184354387
 H          5.8701150430       -0.2573915942        0.5042707804
 H          2.3617477422       -0.0962474554       -1.1436992896
 H          3.4367140736       -2.6133600452        1.2073292149
 H          1.9126234286       -4.4007403636        1.9930035385
 H         -0.4583698496       -4.3876249291        1.3265507447
 C         -1.7395991320       -2.5808408607       -0.2630022597
 H         -2.2775015762       -3.2919926625        0.3835820553
 C         -2.0028828148       -2.9875631271       -1.7066753067
 C         -0.9248494173       -3.1603985869       -2.7303739356
 C         -1.6205524568       -4.3621239949       -2.1707120852
 H         -2.3082265244       -4.9069165858       -2.7994396683
 H         -1.0675268091       -4.9799519857       -1.4790882571
 H         -1.1448552765       -2.8534427629       -3.7414432749
 H          0.0967651106       -2.9808794999       -2.4345770618
 H         -2.9484304865       -2.5983157385       -2.0695347847
 O         -1.7115426982       -0.1100282833       -1.9115853647
