  62
        -98.93950465
 C          1.1721678256        1.4920485752        0.6370929563
 C          2.2063650734        1.3148610069       -0.3133721526
 C          3.2118652628        0.2812426048       -0.0012459625
 C          3.0995179863       -0.4355757673        1.1288421122
 C          4.0215677137       -1.5018288498        1.6669348445
 C          4.5986085450       -2.5159974638        0.6701348310
 C          3.6645879739       -2.8875439498       -0.4906710799
 H          3.5938425774       -3.9749374527       -0.5527216394
 H          2.6631015286       -2.4994012123       -0.3023795556
 C          4.1546953159       -2.3682179515       -1.8439853507
 H          5.2331382094       -2.5261472481       -1.9137453592
 H          3.6863282162       -2.9551867435       -2.6373556609
 C          3.8439514307       -0.8987900255       -2.1243210969
 H          2.7685759945       -0.7680834060       -2.2726193217
 H          4.3325253883       -0.6236489115       -3.0620096381
 C          4.2875424654        0.0876832198       -1.0315578459
 H          5.2264167639       -0.2213677085       -0.5786165658
 H          4.4331832505        1.0646035423       -1.5002581587
 H          5.5359269882       -2.1362882312        0.2661682759
 H          4.8451747605       -3.4123197058        1.2419752548
 H          4.8454444945       -1.0038355471        2.1868645913
 H          3.4383098918       -2.0266407656        2.4279073721
 O          2.0751522233       -0.2430820516        2.0096661565
 C          1.1009463086        0.7139104217        1.7933874370
 O          0.2377041635        0.7739382123        2.6935469331
 O          2.3166411416        1.9889928459       -1.3688678440
 C          0.0671965128        2.5207484903        0.4491557565
 C         -0.8971150896        2.0275797858       -0.6033067804
 C         -0.7068242337        2.2598658234       -1.9608844784
 C         -1.6053752333        1.7605158996       -2.8864285248
 C         -2.7018241683        1.0202586402       -2.4822290648
 C         -2.9011689736        0.7813891072       -1.1270407098
 C         -2.0016046788        1.2875887420       -0.1999321714
 H         -2.1686765123        1.1040926889        0.8510691407
 N         -4.0186703410        0.0529898847       -0.6907944498
 S         -3.9020239088       -1.0172616547        0.5862712489
 O         -5.0744303953       -1.8548173628        0.4482349317
 O         -3.7821802079       -0.3008423402        1.8294956316
 C         -2.4418741291       -1.9855459428        0.2563386709
 C         -1.2939761966       -1.8018190557        0.9980226102
 C         -0.1769665316       -2.5665956278        0.6980621563
 C         -0.2225210438       -3.4890079774       -0.3348000778
 C         -1.3849739462       -3.6609330208       -1.0715843652
 C         -2.5055624783       -2.9042238868       -0.7743618286
 H         -3.4336344191       -3.0237774854       -1.3094270387
 H         -1.4187438687       -4.3822540591       -1.8720073825
 H          0.6511184892       -4.0793283633       -0.5626247644
 H          0.7214624070       -2.4285531793        1.2795538171
 H         -1.2778282764       -1.0732380849        1.7941011502
 H         -4.5924195731       -0.3205253215       -1.4327221175
 H         -3.4029192002        0.6339298630       -3.2061373313
 H         -1.4472243376        1.9468325666       -3.9378050058
 H          0.1595562923        2.8103320692       -2.2881108992
 H         -0.4744271031        2.5508762372        1.4047075341
 C          0.6060074793        3.9070535454        0.1598533385
 C         -0.3008945251        5.0872880977        0.3282760279
 C          0.8200251214        4.8586056253        1.2964121687
 H          1.6747544258        5.5175592299        1.2629433525
 H          0.5739926612        4.5147042865        2.2910023116
 H         -0.2183293212        5.9058398934       -0.3700190328
 H         -1.3086925777        4.8968969697        0.6665452706
 H          1.3271485837        3.9336521013       -0.6460347936
