  62
        -98.94533232
 C          1.5531420924        1.0391720972        0.2821177645
 C          2.8774049407        1.1779587739        0.7680989016
 C          3.9473371697        0.7842537868       -0.1540228482
 C          3.6354240100        0.3276092057       -1.3804501738
 C          4.6136918381       -0.1003266684       -2.4406020120
 C          5.0968275819       -1.5496564409       -2.2934021000
 C          6.0681043981       -1.7973477329       -1.1384393673
 H          6.4915043558       -2.7930863323       -1.2845235439
 H          6.8894740757       -1.0824952689       -1.1967801572
 C          5.4258332162       -1.7343119039        0.2544901970
 H          4.3406801087       -1.8227867399        0.1599760467
 H          5.7639350586       -2.5855551768        0.8498556074
 C          5.7535015014       -0.4685456904        1.0468296931
 H          5.2185816808       -0.5130025228        1.9988761241
 H          6.8236795875       -0.4387761443        1.2631221065
 C          5.3604525257        0.8370057749        0.3431639485
 H          6.0458770513        1.0427093808       -0.4785652606
 H          5.4275792212        1.6510180701        1.0689907719
 H          4.2246604379       -2.1986714834       -2.1826388594
 H          5.5970902119       -1.8227861023       -3.2254698371
 H          4.0959649150       -0.0061355662       -3.3975900054
 H          5.4717712180        0.5724103416       -2.4414287467
 O          2.3526229004        0.2191309568       -1.8152725969
 C          1.2804320056        0.5465021881       -0.9945763789
 O          0.1682139510        0.3727979084       -1.5266735384
 O          3.1516033310        1.6137868601        1.9181462195
 C          0.4086440521        1.3898518629        1.2195598402
 C         -0.2413431532        0.1039275355        1.6694173285
 C          0.4525406880       -0.7320510534        2.5417580618
 C         -0.0969941332       -1.9293761463        2.9561762216
 C         -1.3422741579       -2.3257156133        2.4973670741
 C         -2.0392305925       -1.5037378589        1.6217594261
 C         -1.4925485073       -0.2903971410        1.2251392948
 H         -2.0470612979        0.3397630609        0.5537659328
 N         -3.3137957657       -1.8605744131        1.1459761987
 S         -3.5768540371       -1.8308015252       -0.5167994411
 O         -4.7513959803       -2.6603095457       -0.6994394393
 O         -2.3977456991       -2.2432301933       -1.2408905298
 C         -4.0131956752       -0.1438020525       -0.8759847435
 C         -3.1949307754        0.6311991004       -1.6739869162
 C         -3.5661855972        1.9429271336       -1.9287779571
 C         -4.7369988211        2.4510245888       -1.3871828552
 C         -5.5477688997        1.6560454996       -0.5905744006
 C         -5.1855235343        0.3441477499       -0.3322023019
 H         -5.7877607348       -0.3107026988        0.2751178342
 H         -6.4564810500        2.0556150802       -0.1701655081
 H         -5.0164286543        3.4736883414       -1.5869508701
 H         -2.9307967795        2.5610448075       -2.5435716487
 H         -2.2733184354        0.2137098751       -2.0505006019
 H         -3.6690128474       -2.7237329045        1.5339508424
 H         -1.7697241661       -3.2657155981        2.8133153134
 H          0.4491988263       -2.5653003284        3.6368145058
 H          1.4307645024       -0.4276486705        2.8876886195
 H          0.8868635613        1.8488665849        2.0965655410
 C         -0.5558295584        2.3830362022        0.6086342703
 C         -1.5471253148        3.0850762090        1.4866097231
 C         -0.3956005880        3.8435657731        0.9001698356
 H         -0.5913649630        4.5501405423        0.1079031466
 H          0.4106280776        4.1371291183        1.5564629783
 H         -2.5374355122        3.2675503906        1.0978218342
 H         -1.5215960415        2.8618674341        2.5423802840
 H         -0.8721386498        2.1101607232       -0.3903370816
