  62
        -98.93991136
 C          1.7884781651        1.2388497448       -0.2136879142
 C          1.0511782486        1.9589059824       -1.1873886165
 C         -0.0577947839        2.7772358883       -0.6844502966
 C         -0.2862326795        2.8494668722        0.6392901993
 C         -1.3421871219        3.6827415539        1.3142603118
 C         -2.7290579541        3.0282744789        1.3748486407
 C         -3.4739977920        2.9597676528        0.0415814157
 H         -4.5067476116        2.6842449086        0.2630320099
 H         -3.4914870954        3.9476378779       -0.4199135872
 C         -2.8950881702        1.9379931491       -0.9462437706
 H         -2.2509706824        1.2346111498       -0.4141103094
 H         -3.7017510581        1.3443857940       -1.3837428864
 C         -2.1034609022        2.5391491161       -2.1078301419
 H         -2.7743888300        3.1077803555       -2.7564592015
 H         -1.6927115602        1.7090732782       -2.6901673035
 C         -0.9448187416        3.4523892446       -1.6851760996
 H         -0.3423230847        3.6718352440       -2.5703798369
 H         -1.3323069591        4.3892253844       -1.2839349280
 H         -2.6270115838        2.0192232547        1.7798961787
 H         -3.3322065556        3.6119362151        2.0738257931
 H         -0.9963908241        3.8497542772        2.3366220271
 H         -1.4176753485        4.6477252984        0.8118918524
 O          0.4692243713        2.1766439305        1.5452881319
 C          1.4903541965        1.3179056427        1.1475518027
 O          2.0290530030        0.7122522069        2.0891454126
 O          1.3161143642        1.9239550278       -2.4195484559
 C          2.8743673250        0.2846500990       -0.7011599935
 C          2.4758574460       -1.0980424771       -0.2450191406
 C          3.0215887098       -1.8372707945        0.7966769489
 C          2.4725390352       -3.0575465735        1.1562149318
 C          1.3511875604       -3.5552673489        0.5205259106
 C          0.7845471909       -2.8214102460       -0.5155590178
 C          1.3672270342       -1.6271390209       -0.9045916109
 H          0.9158621817       -1.0693459755       -1.7132016714
 N         -0.3765664101       -3.2706944868       -1.1749085698
 S         -1.6913199627       -2.2436515163       -1.3131079023
 O         -2.7581479510       -3.0857708482       -1.8087415729
 O         -1.3476627864       -1.1056340357       -2.1233439364
 C         -2.0666632541       -1.7388291167        0.3561448806
 C         -3.1244398188       -2.3334880378        1.0159366198
 C         -3.3855919249       -1.9740141418        2.3283477721
 C         -2.5772187170       -1.0434314726        2.9638738234
 C         -1.5144350600       -0.4598718462        2.2912610810
 C         -1.2596785255       -0.8036025999        0.9727873376
 H         -0.4434259853       -0.3558725455        0.4261328498
 H         -0.8704048566        0.2566842288        2.7783198426
 H         -2.7735371147       -0.7677771083        3.9880134366
 H         -4.2134308139       -2.4229451006        2.8531011476
 H         -3.7231330173       -3.0545877448        0.4833643066
 H         -0.6896569153       -4.1829730072       -0.8734783980
 H          0.9126754346       -4.4937546842        0.8240129739
 H          2.9158835183       -3.6168626252        1.9660114470
 H          3.8578304154       -1.4650553503        1.3592905244
 H          2.7598418823        0.2924648015       -1.7979002066
 C          4.2623814351        0.8485323299       -0.4442892854
 C          4.9741549473        0.8749156201        0.8729835399
 C          5.4933673652        0.0171325081       -0.2426823636
 H          6.3994933345        0.3290363970       -0.7408073872
 H          5.3802588371       -1.0527913949       -0.1763090881
 H          5.5230167430        1.7727256547        1.1202567729
 H          4.4895384207        0.4282298152        1.7249921653
 H          4.3936769507        1.7415817072       -1.0521289678
