  62
        -98.94636499
 C         -1.7770415697       -0.7376223996        0.2366801812
 C         -3.0660923797       -0.9452976494        0.7835915813
 C         -3.9727459700        0.2070543104        0.7355568501
 C         -3.5452017002        1.3716045800        0.2142579390
 C         -4.3456531605        2.6415951597        0.1120305577
 C         -5.2625167004        2.7041253183       -1.1173917025
 C         -6.4965733602        1.8030764780       -1.0559705717
 H         -7.0292233903        1.9811181388       -0.1212573619
 H         -7.1569546902        2.1084625871       -1.8700588021
 C         -6.1952537698        0.3048793479       -1.2018107802
 H         -6.8995501796       -0.1412543229       -1.9076868799
 H         -5.1954737997        0.1728930078       -1.6221538200
 C         -6.2933940097       -0.4913348708        0.0994860405
 H         -7.3244708298       -0.4794588707        0.4598157904
 H         -6.0229787595       -1.5289112610       -0.1127575484
 C         -5.3782009500        0.0172595205        1.2208235401
 H         -5.7685972402        0.9479705008        1.6318585292
 H         -5.3572844499       -0.7347779787        2.0134535109
 H         -4.6750779002        2.4571071975       -2.0047880522
 H         -5.5996473606        3.7382067381       -1.2197699735
 H         -4.9393570806        2.7752258404        1.0167347475
 H         -3.6245004607        3.4588471698        0.0447344570
 O         -2.2882568902        1.5378679298       -0.2767870610
 C         -1.3802786299        0.4887885000       -0.2941632899
 O         -0.2754886000        0.7767528098       -0.7912982401
 H          1.8613380807       -1.9549888195       -0.6014637772
 C          1.7272939705       -1.6082523386        0.4089621124
 C          0.4633894204       -1.5113477984        0.9683239022
 C          0.3479985102       -1.0534545371        2.2795225718
 C          1.4657386800       -0.6919388961        3.0049495015
 C          2.7252210201       -0.7702992164        2.4348962117
 C          2.8523579103       -1.2300774476        1.1310101022
 N          4.1199768304       -1.3417305379        0.5260728424
 S          4.4246785104       -0.4871133692       -0.8826484784
 O          3.5211047206       -0.9099974404       -1.9194627580
 O          5.8337574704       -0.6950367291       -1.1390410980
 C          4.1507685899        1.2178461612       -0.4347779500
 C          5.2457616297        1.9872492418       -0.0889677007
 C          5.0464740293        3.2924960221        0.3287866680
 C          3.7584356892        3.8017011819        0.4037511174
 C          2.6716504494        3.0145615413        0.0572367581
 C          2.8620092498        1.7076389709       -0.3665777207
 H          2.0227282000        1.0878622005       -0.6412299401
 H          1.6655395293        3.3996299211        0.1116785176
 H          3.5996316789        4.8168228322        0.7324376564
 H          5.8915112592        3.9063739326        0.5961303275
 H          6.2281426698        1.5497663219       -0.1663972402
 H          4.8872275003       -1.1978031871        1.1685046324
 H          3.6011956400       -0.4820836056        2.9962089315
 H          1.3577373798       -0.3398508452        4.0196712812
 H         -0.6371662599       -0.9850443369        2.7207850316
 C         -0.7907364594       -1.8911505594        0.2222400725
 H         -1.2853490393       -2.7040372590        0.7748655332
 C         -0.5395223692       -2.3542358007       -1.1970949571
 C         -0.1437718288       -3.7743761109       -1.4651278257
 C         -1.5138623889       -3.2948409315       -1.8374868763
 H         -1.7491099288       -3.1614273026       -2.8828711764
 H         -2.3514647589       -3.6235845912       -1.2394948760
 H          0.5666303613       -3.9689193714       -2.2546659154
 H         -0.0512667787       -4.4355527700       -0.6167450550
 H         -0.1089442693       -1.5803164712       -1.8238409278
 O         -3.4361918195       -2.0362856390        1.2939534723
