  62
        -98.94433320
 C         -2.0358118836       -1.3771851160        0.0348462079
 C         -2.3394849951       -0.4185038695       -0.9618762526
 C         -3.6984047247        0.1435971404       -0.9227852030
 C         -4.5636211619       -0.2673056672        0.0210076734
 C         -5.9525276558        0.2684734501        0.2088456886
 C         -5.9646087770        1.4491666766        1.1899524172
 C         -4.9130773112        2.5166091565        0.8864325544
 H         -5.0365525549        3.3134239825        1.6231748010
 H         -3.9179645140        2.0917866923        1.0388977035
 C         -4.9996481321        3.1098167834       -0.5267949917
 H         -4.8981867810        4.1949884254       -0.4574976104
 H         -5.9807929173        2.9033032206       -0.9559496159
 C         -3.9137036693        2.6218796297       -1.4875190362
 H         -2.9323107785        2.7423363114       -1.0209969224
 H         -3.9339105329        3.2601954549       -2.3750455149
 C         -4.0483103314        1.1699066082       -1.9638035478
 H         -5.0559184802        1.0010903408       -2.3485914988
 H         -3.3385755639        1.0222882500       -2.7829746334
 H         -6.9583049586        1.9005290909        1.1746989561
 H         -5.7809361934        1.0654982388        2.1962015006
 H         -6.3507999990        0.5793177154       -0.7550282816
 H         -6.5779182770       -0.5311198651        0.6094476885
 O         -4.2447840308       -1.1992753604        0.9535400258
 C         -2.9838510569       -1.7662422160        0.9885303903
 O         -2.8280693734       -2.6031396163        1.8997865455
 H          0.2924164955        0.3020014309       -0.7324980963
 C          0.7342768173        0.0172364571        0.2107707274
 C          0.3333669316       -1.1637965196        0.8193629185
 C          0.9048991756       -1.5107911097        2.0377521564
 C          1.8481403704       -0.6914698753        2.6340507064
 C          2.2410850182        0.4876365975        2.0272889130
 C          1.6736389716        0.8429987898        0.8101211163
 N          2.0770885031        2.0343449843        0.1782480120
 S          3.7279109917        2.2494192903       -0.0086850622
 O          4.2859353092        2.7723168664        1.2139214300
 O          3.8810879799        3.0849864289       -1.1788207847
 C          4.3636410345        0.6098374364       -0.3107008752
 C          3.9262509343       -0.0562900447       -1.4385060489
 C          4.3596813434       -1.3526839496       -1.6607433003
 C          5.2160228841       -1.9594084293       -0.7546850632
 C          5.6502007769       -1.2752869514        0.3697501628
 C          5.2188350099        0.0216590597        0.5982772712
 H          5.5273673449        0.5879781418        1.4617708179
 H          6.3179569323       -1.7488205498        1.0711901272
 H          5.5460169907       -2.9715177450       -0.9277743176
 H          4.0238207482       -1.8850720300       -2.5361123730
 H          3.2616037824        0.4436797612       -2.1250380551
 H          1.5899205534        2.2085324544       -0.6891318968
 H          2.9713363148        1.1409804295        2.4769891777
 H          2.2812950159       -0.9732700224        3.5815102747
 H          0.5944471698       -2.4242386738        2.5237564452
 C         -0.6826279787       -2.0628622036        0.1558761045
 H         -0.8488602367       -2.9229345724        0.8176351141
 C         -0.1567727297       -2.5762790672       -1.1717543031
 C          0.8841067638       -3.6531699760       -1.1710619546
 C         -0.5141320854       -3.9617943497       -1.6140593881
 H         -0.6999850234       -4.1354077966       -2.6634289361
 H         -1.1406889839       -4.5495096974       -0.9586508995
 H          1.2086293119       -4.0343902047       -0.2149154602
 H          1.6624306114       -3.6167462703       -1.9171865425
 H         -0.0942006158       -1.8124835166       -1.9350256970
 O         -1.5357626950       -0.0304730256       -1.8531235119
