  62
        -98.94040521
 C         -1.1524559932       -0.9494372444        0.4640770694
 C         -2.0501571548       -0.7497178294       -0.6106993799
 C         -3.0661641021        0.2939310185       -0.4112330878
 C         -3.0548769099        1.0308219233        0.7138004920
 C         -3.9770779525        2.1726273252        1.0518055115
 C         -5.4652125859        1.8171129775        1.2360671794
 C         -6.3183432655        1.9918708644       -0.0264175529
 H         -7.2815105496        2.4206007825        0.2577685291
 H         -5.8327810098        2.7182972823       -0.6793446431
 C         -6.6137268728        0.7122946777       -0.8147857858
 H         -7.4021403264        0.1538553863       -0.3051206152
 H         -6.9983516378        1.0049786995       -1.7941058621
 C         -5.4328363964       -0.2386132870       -1.0108033923
 H         -5.2329760916       -0.7728669254       -0.0790161633
 H         -5.7216326558       -0.9939609059       -1.7442307402
 C         -4.1261374342        0.4415919799       -1.4637670313
 H         -4.2962852223        1.4927607109       -1.6926901493
 H         -3.7415097967       -0.0474033633       -2.3612518150
 H         -5.5509619672        0.7999273979        1.6172759532
 H         -5.8554424417        2.4850859060        2.0055810093
 H         -3.8784643226        2.9401171270        0.2803036829
 H         -3.5911081537        2.5904951403        1.9841155871
 O         -2.1343591210        0.8449343867        1.6997565616
 C         -1.1673707602       -0.1403594236        1.5995385674
 O         -0.3845876525       -0.1950874198        2.5712035826
 O         -2.0062772671       -1.4025408785       -1.6861869729
 C         -0.0715050626       -2.0093713580        0.3655102621
 C          0.8880966486       -1.6760880387       -0.7522001871
 C          1.4394075174       -2.6270340983       -1.6016438355
 C          2.3397682605       -2.2479465819       -2.5826822512
 C          2.7315062949       -0.9284659116       -2.7203680535
 C          2.1898774462        0.0290341099       -1.8704746723
 C          1.2711724742       -0.3511452384       -0.9063596604
 H          0.8346332596        0.4062211813       -0.2736883933
 N          2.5604912854        1.3799798118       -1.9570698840
 S          2.7089958570        2.2692796617       -0.5472130970
 O          1.4092101897        2.6317017361       -0.0391675095
 O          3.5691063073        3.3745775437       -0.9153228179
 C          3.5720647937        1.1878683706        0.5798428608
 C          2.9278862112        0.6147838150        1.6567000971
 C          3.6341860550       -0.2611196349        2.4675110306
 C          4.9614252097       -0.5475324362        2.1916416884
 C          5.5973824950        0.0436684957        1.1100384694
 C          4.8973513527        0.9166634682        0.2948760245
 H          5.3586709739        1.4057008364       -0.5476630137
 H          6.6316543266       -0.1756647327        0.8997448509
 H          5.5024085401       -1.2325005568        2.8252618233
 H          3.1304243432       -0.7149970728        3.3062883092
 H          1.8919577230        0.8433194099        1.8555185769
 H          3.3045092283        1.5784658021       -2.6096737787
 H          3.4399507882       -0.6380884513       -3.4806836137
 H          2.7517053474       -2.9943572029       -3.2445341064
 H          1.1586566251       -3.6625003123       -1.5010077756
 H          0.4924092948       -1.9532033628        1.3092318214
 C         -0.6850619075       -3.3888793297        0.2458763586
 C          0.0185519934       -4.5812456180        0.8189347017
 C         -1.2164800924       -4.0506016954        1.4807685418
 H         -2.1303282118       -4.6208823304        1.4081312481
 H         -1.1099335188       -3.5158501908        2.4137964456
 H         -0.0494230199       -5.5217203311        0.2932521122
 H          0.9651930592       -4.4155972502        1.3105389716
 H         -1.2487699992       -3.5145221383       -0.6709957544
