  62
        -98.93142648
 C          2.1884458187        0.7366950390       -0.3274009153
 C          3.5324702622        1.0539598866        0.0001148161
 C          4.3230571050        0.0066462643        0.6664985049
 C          3.7348993749       -1.1601669197        0.9783790405
 C          4.3239759469       -2.3480044622        1.6973389973
 C          5.7471681150       -2.7745283887        1.3123786368
 C          6.1152111190       -2.5521518333       -0.1619562783
 H          6.5226278415       -3.4792071525       -0.5694515023
 H          5.2209426270       -2.3087144948       -0.7382683536
 C          7.1630610144       -1.4535754044       -0.3568158283
 H          7.9364778422       -1.5686527276        0.4056314417
 H          7.6403813260       -1.5922447706       -1.3298814794
 C          6.6293282198       -0.0221392039       -0.3148844104
 H          6.0299879596        0.1760916848       -1.2077803669
 H          7.4845814060        0.6569999033       -0.3477846307
 C          5.7694132569        0.3285718863        0.9103874733
 H          6.1440144249       -0.1579060237        1.8077007523
 H          5.8165836184        1.4112884135        1.0555514750
 H          6.4667093605       -2.2513445435        1.9405776019
 H          5.8335461014       -3.8353850530        1.5534952951
 H          4.2886121747       -2.1451076829        2.7718118498
 H          3.6298012634       -3.1694636734        1.5037965288
 O          2.4282887891       -1.4095933905        0.6877560249
 C          1.6235533894       -0.4889662892        0.0277619760
 O          0.4656383139       -0.9012601831       -0.1717370911
 H         -1.1182955525        0.8101480909       -1.5013259613
 C         -1.0969812724        1.4383789921       -0.6246012202
 C          0.0902937101        2.0436430767       -0.2463757439
 C          0.1062152633        2.8227978032        0.9064398407
 C         -1.0406132871        2.9918217927        1.6597528424
 C         -2.2226506208        2.3774443591        1.2854515613
 C         -2.2433986662        1.5865496305        0.1449500243
 N         -3.4374763349        0.9464557865       -0.2376502787
 S         -4.3488608201        0.2376136088        0.9964508879
 O         -5.2126541505        1.2502455673        1.5545799147
 O         -3.4920038198       -0.4422079608        1.9413203662
 C         -5.3175151685       -0.9396968018        0.0737958280
 C         -4.7546935974       -2.1673193491       -0.2217729919
 C         -5.4906248086       -3.0808575333       -0.9596654308
 C         -6.7680785406       -2.7521101301       -1.3889959762
 C         -7.3181441486       -1.5158656530       -1.0855182502
 C         -6.5880081122       -0.5975147559       -0.3474536743
 H         -6.9744194744        0.3724294280       -0.0813098046
 H         -8.3117451239       -1.2652822741       -1.4203010098
 H         -7.3378492059       -3.4662300832       -1.9622697256
 H         -5.0649200357       -4.0429436831       -1.1958172820
 H         -3.7606994174       -2.3841534671        0.1383679576
 H         -3.2770765680        0.2836867809       -0.9844998963
 H         -3.1210180715        2.4804562903        1.8732517197
 H         -1.0145861644        3.5999965973        2.5517207056
 H          1.0343476293        3.2850745469        1.2138046900
 C          1.3705070047        1.8213815795       -1.0086081080
 H          1.9889006418        2.7276474281       -0.9066641597
 C          1.1470575025        1.6176003270       -2.4996892953
 C          2.2540269217        1.0948310101       -3.3645884822
 C          1.0236356806        0.2700474990       -3.1422978278
 H          0.3278584463        0.1614522152       -3.9617543041
 H          1.0930027270       -0.6022470951       -2.5119087069
 H          2.4099410291        1.5422994723       -4.3344470101
 H          3.1656597534        0.7926941466       -2.8696415653
 H          0.5373303521        2.4109723868       -2.9216379637
 O          4.0519435839        2.1742758296       -0.2476965822
