  62
        -98.94874219
 C         -2.0609755473       -1.0052793603       -0.1793653290
 C         -1.1955211857       -1.7501573164       -1.0137189198
 C         -0.2858222806       -2.6752365534       -0.3322712352
 C         -0.3102012181       -2.7633720085        1.0102719405
 C          0.5640629585       -3.6534822785        1.8515000252
 C          1.9488939927       -3.0561558010        2.1387757818
 C          2.9233052095       -3.0810558379        0.9600459558
 H          3.9156332982       -2.8659834553        1.3612528214
 H          2.9524864183       -4.0842245972        0.5326863100
 C          2.6056762333       -2.0548258743       -0.1363124963
 H          3.5249282241       -1.5443591418       -0.4341699397
 H          1.9382065784       -1.2912876577        0.2709871556
 C          1.9856688698       -2.6433929163       -1.4034512802
 H          1.7558091768       -1.8184547239       -2.0821502254
 H          2.7108009046       -3.2950157815       -1.8960672018
 C          0.6960881224       -3.4399646347       -1.1690730074
 H          0.2280770268       -3.6251186282       -2.1393342409
 H          0.9248248651       -4.3977875460       -0.7023180364
 H          2.3873592165       -3.6263911745        2.9614564800
 H          1.8178826543       -2.0245294275        2.4769247021
 H          0.0438131507       -3.7916692990        2.8018358963
 H          0.6755274376       -4.6259234156        1.3703045688
 O         -1.1720097365       -2.0460232132        1.7776639128
 C         -2.0311020696       -1.1182602654        1.2111161472
 O         -2.7224608876       -0.4863625776        2.0344744876
 H         -0.4721000585        0.8668244485       -0.4468078379
 C         -1.1658503320        1.6586112565       -0.2086966867
 C         -2.5279458789        1.4145019915       -0.3332209403
 C         -3.4151532408        2.4354447781       -0.0209225315
 C         -2.9415056201        3.6530550612        0.4387231329
 C         -1.5874240370        3.8703244106        0.6116673265
 C         -0.6885126142        2.8584971110        0.2879465838
 N          0.6947683475        3.0498918356        0.4378489293
 S          1.7242576878        1.8575548589        1.0188777822
 O          1.0057544973        0.6739892555        1.4232717132
 O          2.5247677307        2.4992231842        2.0424882282
 C          2.7857535085        1.4881384784       -0.3670750116
 C          4.1476963296        1.4209140564       -0.1449196016
 C          4.9892510446        1.1003081904       -1.1982492061
 C          4.4575804332        0.8508009610       -2.4538606003
 C          3.0893138728        0.9262952668       -2.6633641999
 C          2.2431446803        1.2472927202       -1.6133080784
 H          1.1761797280        1.3075308685       -1.7561677438
 H          2.6728269653        0.7332634893       -3.6392671533
 H          5.1102122952        0.5968502270       -3.2739985556
 H          6.0534614419        1.0436422803       -1.0352901000
 H          4.5166345717        1.6247239542        0.8469831314
 H          0.9440766666        3.9397876401        0.8445680084
 H         -1.2240459654        4.8107307387        0.9978668648
 H         -3.6399230674        4.4386684325        0.6846590713
 H         -4.4760068395        2.2751030307       -0.1232840472
 C         -2.9568369639        0.0463794995       -0.8081000955
 H         -2.7675391368       -0.0179248571       -1.8908585638
 C         -4.4186332580       -0.2506313788       -0.5513382677
 C         -5.4608652078        0.1521571979       -1.5506108128
 C         -5.1014842696       -1.2927307744       -1.3841486850
 H         -5.8097241972       -1.9520063166       -0.9053813419
 H         -4.5168380375       -1.7683464562       -2.1580654832
 H         -5.1281432510        0.6551533481       -2.4459455858
 H         -6.4216713150        0.4843056871       -1.1872038183
 H         -4.6710710137       -0.2069493372        0.5021701430
 O         -1.1791429244       -1.6386836691       -2.2707101007
