  62
        -98.93607275
 C         -2.4822687713       -0.1963687654        0.2507560193
 C         -2.5003178824        0.9891458237        1.0229813383
 C         -2.1333949815        2.2410005297        0.3407102226
 C         -1.7556110114        2.1989146033       -0.9500164195
 C         -1.3293276432        3.2966980366       -1.9024045366
 C         -0.9768214913        4.6874206102       -1.3821307067
 C          0.2985541276        4.7501851563       -0.5424665063
 H          1.1534828580        4.5613936879       -1.1968653600
 H          0.3962560407        5.7644320316       -0.1481577034
 C          0.3832906163        3.7580407277        0.6152719366
 H          1.3378596727        3.9235479100        1.1231743718
 H          0.4066121244        2.7350199874        0.2314506832
 C         -0.7226610171        3.8792587629        1.6621470414
 H         -0.7607142314        4.9031168630        2.0404560312
 H         -0.4568805002        3.2221525921        2.4945318152
 C         -2.1311385540        3.4783240975        1.1920370877
 H         -2.7263913576        3.2402380426        2.0786443012
 H         -2.6251969244        4.2983769867        0.6761926634
 H         -0.8227939907        5.3180735837       -2.2621901878
 H         -1.8155374900        5.1085119882       -0.8355334871
 H         -0.4716608321        2.8899620437       -2.4488604536
 H         -2.1425615046        3.3929801377       -2.6308500858
 O         -1.7547510902        1.0326220621       -1.6583837531
 C         -2.0739841884       -0.1852471681       -1.0832435096
 O         -1.9678381235       -1.1519207929       -1.8634851784
 O         -2.8073276095        1.0023118722        2.2465249463
 C         -2.7362176639       -1.5135627520        0.9653603129
 C         -1.6114281230       -2.4621215332        0.6300801447
 C         -1.7859481032       -3.7681271224        0.1955142525
 C         -0.6895288441       -4.5365520801       -0.1591418872
 C          0.5882389681       -4.0110598563       -0.1220127224
 C          0.7732812618       -2.7060225537        0.3210655996
 C         -0.3176386253       -1.9651399782        0.7367363595
 H         -0.1667855430       -0.9544746212        1.0855126858
 N          2.0581565404       -2.1178329281        0.3634741009
 S          2.2713053756       -0.6628831205       -0.4780937757
 O          1.3825935295        0.3449034278        0.0363457725
 O          2.2181255880       -0.9107658761       -1.9045355949
 C          3.9480508045       -0.2915807907        0.0020465011
 C          4.1631557708        0.2836531204        1.2394555237
 C          5.4639717519        0.5402718398        1.6423863786
 C          6.5224659857        0.2166289351        0.8063795423
 C          6.2909897756       -0.3590285844       -0.4336182888
 C          4.9918808171       -0.6185438533       -0.8418303239
 H          4.7629594792       -1.0557034140       -1.8004575933
 H          7.1153703837       -0.6068951634       -1.0825834320
 H          7.5339048697        0.4167175103        1.1228712124
 H          5.6468063040        0.9901008269        2.6049237806
 H          3.3084634677        0.5232417998        1.8508037932
 H          2.7662682617       -2.7628812613        0.0328431572
 H          1.4356686749       -4.5987310235       -0.4430019670
 H         -0.8369203760       -5.5503645551       -0.4999849943
 H         -2.7784103105       -4.1783711583        0.1046864837
 H         -2.6611139497       -1.2584126291        2.0364284155
 C         -4.1217341251       -2.1042023913        0.7573183331
 C         -5.2711898818       -1.2450210199        0.3252275471
 C         -4.7169330578       -2.2783576992       -0.6066674169
 H         -5.3075740265       -3.1622060039       -0.7990647268
 H         -4.1283583323       -1.9511974889       -1.4492139189
 H         -6.2379048983       -1.4183823388        0.7737548369
 H         -5.0655186731       -0.2054250315        0.1141216744
 H         -4.3503519735       -2.8729206055        1.4891572923
