  62
        -98.94311900
 C         -1.4840830653       -1.3788374738       -0.3303468736
 C         -1.5720765100        0.0039722266       -0.6299516602
 C         -2.6547269885        0.7349377538        0.0457770346
 C         -3.4596008508        0.1022533148        0.9160826147
 C         -4.5820443324        0.7230955526        1.7029860210
 C         -5.9018382100        0.8402710275        0.9279796999
 C         -5.9259547098        1.9124119687       -0.1623260909
 H         -6.9671661375        2.0352577914       -0.4670384300
 H         -5.5952377763        2.8626877887        0.2580777427
 C         -5.0852921948        1.5750241202       -1.4015782234
 H         -5.6635916166        1.7891694665       -2.3031475925
 H         -4.8625726369        0.5055937252       -1.4091650076
 C         -3.7737521432        2.3532938832       -1.5078847829
 H         -3.2409802708        2.0092292115       -2.3978046104
 H         -3.9873142776        3.4171611741       -1.6327860126
 C         -2.8422016720        2.1809628444       -0.3013514375
 H         -1.8611663922        2.5905931153       -0.5555692245
 H         -3.2296570491        2.7290881914        0.5575291986
 H         -6.6844928565        1.0732391072        1.6537054637
 H         -6.1351004860       -0.1322769714        0.4884194006
 H         -4.7467179890        0.0778214531        2.5688492226
 H         -4.2764425063        1.7076625058        2.0593243141
 O         -3.3252262054       -1.2209170451        1.2021939769
 C         -2.3471065074       -1.9838449931        0.5868341040
 O         -2.3486222519       -3.1847268129        0.9291076498
 H          0.7263834881       -0.2751745267        0.4658325851
 C          1.2559572178       -1.2038954898        0.5933858493
 C          0.7942989418       -2.3521269530       -0.0331746404
 C          1.4746158234       -3.5466611889        0.1753817384
 C          2.5961735222       -3.5823775734        0.9848221393
 C          3.0540391963       -2.4350948432        1.6063303306
 C          2.3693425235       -1.2375494861        1.4205611209
 N          2.7799749295       -0.0823446385        2.0887077039
 S          2.3890115185        1.4776121808        1.6521046641
 O          3.1538246233        2.2838028801        2.5809421695
 O          0.9614745393        1.6700930026        1.6746686413
 C          3.0644455682        1.6990977621        0.0166732649
 C          2.2571330132        1.6983017338       -1.1014580044
 C          2.8468314298        1.8712592608       -2.3456918449
 C          4.2183063189        2.0327417962       -2.4524133538
 C          5.0157710792        2.0287461725       -1.3171703534
 C          4.4350988434        1.8621451119       -0.0718598133
 H          5.0146941347        1.8756227487        0.8368006366
 H          6.0830299227        2.1569382086       -1.3999454647
 H          4.6672312220        2.1646174720       -3.4242645669
 H          2.2204272064        1.8748258852       -3.2231708707
 H          1.1913985145        1.5572664583       -1.0073104378
 H          3.6493930044       -0.1449608137        2.5943380126
 H          3.9213096719       -2.4655280604        2.2476496777
 H          3.1166265104       -4.5152368056        1.1395497926
 H          1.1066779728       -4.4535321232       -0.2815155286
 C         -0.4280047309       -2.3009535917       -0.9172969976
 H         -0.8793726177       -3.3065985659       -0.9045936887
 C         -0.0866942389       -1.9750215498       -2.3653506656
 C          1.2037939352       -1.3422193490       -2.7802817376
 C          0.9411954742       -2.7801067831       -3.1044421420
 H          0.7396251886       -3.0519790005       -4.1295140809
 H          1.4896678296       -3.5248565226       -2.5490016725
 H          1.9259859156       -1.1117190990       -2.0121552323
 H          1.1691101278       -0.6136435557       -3.5748023133
 H         -0.9675708955       -1.6823135440       -2.9273085696
 O         -0.8060708172        0.6169477671       -1.4155498471
