  62
        -98.92898296
 C         -2.3478464135       -0.1004373716        0.5222937410
 C         -3.5602645611        0.1744145642        1.2040409765
 C         -4.7470014501        0.4037306712        0.3672726004
 C         -4.6138502855        0.3886329456       -0.9712208575
 C         -5.7361794631        0.5275525091       -1.9602629946
 C         -6.5215001128       -0.7962169892       -2.0558520379
 C         -7.9651701025       -0.7107238581       -1.5599258851
 H         -8.5686721019       -0.1972446630       -2.3113488823
 H         -8.3427820850       -1.7319943761       -1.4758475215
 C         -8.1711018000        0.0083172564       -0.2231922589
 H         -8.1543855586        1.0878514177       -0.3804192847
 H         -9.1776855769       -0.2403784422        0.1197368228
 C         -7.1724523325       -0.3408116619        0.8878194417
 H         -6.7398357549       -1.3274716753        0.7203126913
 H         -7.7184236739       -0.3897525332        1.8321741832
 C         -6.0414163086        0.6869983947        1.0782970455
 H         -6.4010219374        1.6813779302        0.7990462617
 H         -5.7750470170        0.7211833932        2.1389946916
 H         -5.9836158823       -1.5556071129       -1.4843519297
 H         -6.5361130768       -1.1361634410       -3.0924594189
 H         -5.2908513989        0.7764753785       -2.9236961565
 H         -6.3924735934        1.3411632655       -1.6590983856
 O         -3.4259881331        0.1684170890       -1.5899403826
 C         -2.2622036885       -0.0761460661       -0.8702432581
 O         -1.2573994000       -0.2480503468       -1.5837078847
 O         -3.6436024669        0.2314975101        2.4605530702
 C         -1.1091521690       -0.3372150646        1.3674509744
 C          0.0297027356        0.5195350599        0.8734442116
 C         -0.1337897293        1.9026514493        0.8764007012
 C          0.8747738912        2.7361697249        0.4348579686
 C          2.0733721423        2.2104460370       -0.0146030356
 C          2.2504940028        0.8344668337       -0.0150900617
 C          1.2349681380       -0.0024711875        0.4336879040
 H          1.3810671719       -1.0711183560        0.4076636540
 N          3.4616630932        0.2940165571       -0.4815342049
 S          4.8851081606        1.0608347330        0.0059944720
 O          4.8118266384        1.3917644382        1.4116553106
 O          5.1419044333        2.1640815266       -0.8859905079
 C          6.0864632452       -0.2273399156       -0.2657772648
 C          6.4807163526       -1.0165273252        0.7981087843
 C          7.4002244687       -2.0296696010        0.5767227565
 C          7.9049670136       -2.2367948465       -0.6982149576
 C          7.4992746490       -1.4366002343       -1.7561000076
 C          6.5810437742       -0.4210228240       -1.5416934402
 H          6.2446386473        0.2308366504       -2.3309373087
 H          7.8959969877       -1.5995749014       -2.7451662545
 H          8.6213729247       -3.0250480081       -0.8677472296
 H          7.7196557777       -2.6513315977        1.3976168369
 H          6.0692557666       -0.8126969571        1.7736913696
 H          3.5120032855       -0.7068741339       -0.3510811656
 H          2.8716227404        2.8476881096       -0.3603376914
 H          0.7297342382        3.8064387037        0.4393614132
 H         -1.0709037753        2.3163501590        1.2249727994
 H         -1.3926903272        0.0329226538        2.3673616515
 C         -0.7395213038       -1.8022962026        1.5438307572
 C         -1.7831227173       -2.8751736288        1.4646830534
 C         -0.7298153107       -2.7757805866        0.4044442545
 H          0.0431357222       -3.5305082073        0.3824577586
 H         -1.0088272999       -2.4071811721       -0.5699133322
 H         -1.7333225143       -3.6927950785        2.1680357654
 H         -2.7902165004       -2.5745572097        1.2148087278
 H          0.0254173563       -1.9348647414        2.3033798990
