  62
        -98.93878626
 C         -1.8893886813       -1.0401462294       -0.2455679296
 C         -3.0129423817       -1.2308179106        0.5986608159
 C         -4.2854511899       -0.6322675804        0.1625715076
 C         -4.3174167166        0.0559459792       -0.9914845438
 C         -5.4835511621        0.7933744213       -1.5891696578
 C         -5.4693947975        2.2708764005       -1.1613720436
 C         -6.1780491149        2.5665477418        0.1599373312
 H         -7.2557638148        2.4575902558        0.0211066323
 H         -5.9837312784        3.6132825598        0.4051942399
 C         -5.7468477709        1.6964203684        1.3434556517
 H         -6.0203696536        2.2207851636        2.2611747957
 H         -4.6603493384        1.5897528477        1.3452000239
 C         -6.4090895189        0.3105840595        1.3466306380
 H         -7.2254401220        0.3041565923        0.6246480809
 H         -6.8596397577        0.1276465057        2.3243703999
 C         -5.4634878286       -0.8667630171        1.0684197922
 H         -6.0457920369       -1.7054990251        0.6723009591
 H         -5.0240515516       -1.2100301270        2.0101733788
 H         -5.9480715317        2.8662017804       -1.9416496420
 H         -4.4262914020        2.5922890663       -1.0995710897
 H         -6.4211331369        0.3152712785       -1.3216776573
 H         -5.3600983448        0.7444115039       -2.6731000453
 O         -3.2168794202        0.2168030790       -1.7739841570
 C         -1.9843948564       -0.3137652326       -1.4320421798
 O         -1.0899330837       -0.0694380029       -2.2663615173
 O         -2.9538553948       -1.8782438289        1.6781037848
 C         -0.5731739306       -1.6493599395        0.2098411645
 C          0.3327707673       -0.5767251440        0.7644123201
 C          0.4774982623       -0.4171759932        2.1380808941
 C          1.3069270309        0.5639648781        2.6528003783
 C          2.0076897556        1.4064499926        1.8084254765
 C          1.8613134318        1.2604599673        0.4351634458
 C          1.0379041205        0.2698672023       -0.0794187015
 H          0.9149130051        0.1777167737       -1.1476761650
 N          2.5780222263        2.1115324621       -0.4333830761
 S          4.2472480808        2.0255602782       -0.3012554514
 O          4.6634177127        2.7269943602        0.8870316215
 O          4.7675245263        2.5280013725       -1.5526564242
 C          4.5824412120        0.2824340305       -0.1318455733
 C          4.5387364285       -0.5028803218       -1.2665066752
 C          4.7136572007       -1.8711545676       -1.1414849365
 C          4.9148628399       -2.4292148336        0.1117063479
 C          4.9552056328       -1.6268310547        1.2411166272
 C          4.7866146166       -0.2566490585        1.1220411192
 H          4.8152875199        0.4023303528        1.9739003216
 H          5.1132452623       -2.0636730537        2.2138903425
 H          5.0418902449       -3.4960569570        0.2074167264
 H          4.6886468961       -2.4962710074       -2.0198891251
 H          4.3822396208       -0.0315479329       -2.2238158379
 H          2.3028850955        2.0005760073       -1.3993891054
 H          2.6642935590        2.1729598911        2.1876651301
 H          1.4087031969        0.6744511479        3.7216404409
 H         -0.0771133373       -1.0645851677        2.8019250910
 H         -0.8422522910       -2.3188137286        1.0374067142
 C          0.1134641274       -2.4658163727       -0.8673920635
 C          1.2274426909       -3.3874496757       -0.4734469083
 C         -0.0920626056       -3.9490488085       -0.9083629843
 H         -0.1571202424       -4.4323350556       -1.8717164345
 H         -0.7346084293       -4.3861989777       -0.1581310257
 H          2.0731540565       -3.4841123561       -1.1360034717
 H          1.4817273095       -3.4399253824        0.5741439029
 H          0.1944878217       -1.9527784870       -1.8166551116
