  62
        -98.94058789
 C          1.9819201200        1.2741579710        0.3762013515
 C          2.5127716402        0.6127549115       -0.7593195987
 C          3.7877212001       -0.0945599686       -0.5500589889
 C          4.3472280600       -0.1102581292        0.6724323912
 C          5.6196369299       -0.8220573494        1.0282263510
 C          5.3437411998       -2.2528758297        1.5104322703
 C          4.4169315799       -3.0467880392        0.5896324798
 H          4.3193430298       -4.0494823194        1.0116863892
 H          3.4225217199       -2.5942053792        0.6060898398
 C          4.9008241701       -3.1486694385       -0.8636038002
 H          5.9646682901       -2.9143647085       -0.9172222799
 H          4.7788229901       -4.1799705983       -1.2013880808
 C          4.1364951603       -2.2638078380       -1.8502525199
 H          4.4057282804       -2.5744190775       -2.8633242900
 H          3.0617679403       -2.4272628580       -1.7343115901
 C          4.4091743203       -0.7579341680       -1.7469140491
 H          5.4858178203       -0.5766901381       -1.7722634589
 H          3.9585887305       -0.2806717476       -2.6221780989
 H          4.8828112596       -2.2027113702        2.4997087502
 H          6.2976059098       -2.7746389997        1.6066720602
 H          6.2737055700       -0.8405761890        0.1586140311
 H          6.1109975098       -0.2671264699        1.8293655314
 O          3.7801413398        0.4896017502        1.7504327914
 C          2.5852938998        1.1807701703        1.6329884916
 O          2.1624609397        1.6543096398        2.7071513717
 H         -0.3666913501       -0.2273660693        1.0906277404
 C         -0.8042345900        0.0926080311        0.1521918805
 C         -0.3682503498        1.2797975714       -0.4246439988
 C         -0.9363870797        1.6810161620       -1.6257765587
 C         -1.8970854296        0.8977438824       -2.2419182192
 C         -2.3206151797       -0.2879364879       -1.6712760799
 C         -1.7684251899       -0.6914379985       -0.4618057800
 N         -2.2139774700       -1.8822295788        0.1382903793
 S         -3.8666354800       -2.1454365088        0.1953717690
 O         -4.0793894902       -2.9669007394        1.3667519985
 O         -4.3121219598       -2.7085464882       -1.0547647814
 C         -4.5907254000       -0.5297921889        0.4208422097
 C         -5.4426103899       -0.0161512584       -0.5354656502
 C         -5.9635296799        1.2553574015       -0.3558686897
 C         -5.6215086000        1.9889560010        0.7692153907
 C         -4.7678628302        1.4571788005        1.7238501806
 C         -4.2460328802        0.1857936205        1.5504823901
 H         -3.5837273303       -0.2570887098        2.2772918599
 H         -4.5031840803        2.0285675200        2.5991386109
 H         -6.0222373900        2.9809643509        0.9054679012
 H         -6.6294277397        1.6704226519       -1.0950643396
 H         -5.6790747797       -0.6191955480       -1.3968755006
 H         -1.7802870601       -2.0823412193        1.0271987493
 H         -3.0571608496       -0.9153473977       -2.1466069603
 H         -2.3189416094        1.2128770728       -3.1839220091
 H         -0.6040969296        2.5916421023       -2.0956049282
 C          0.6880608701        2.0685054210        0.3088301417
 H          0.3631449499        2.1641386705        1.3580322517
 C          0.8542617802        3.4858322813       -0.2188378575
 C          2.1180864102        4.2530166311        0.0278632030
 C          1.7605096404        3.8247333318       -1.3621717472
 H          1.4381805505        4.5815414822       -2.0623970169
 H          2.3197577704        3.0221309520       -1.8154860376
 H          2.0423539202        5.2995199310        0.2821998035
 H          2.9246661301        3.7395713309        0.5314012729
 H         -0.0700096598        4.0507335913       -0.1468841774
 O          1.9696602404        0.6090286121       -1.8928068688
