  62
        -98.93808352
 C          2.0191088707        0.7778184997        0.6050157043
 C          2.0006685378        0.0301397815       -0.5956102966
 C          2.0484445062       -1.4338587990       -0.4521089255
 C          2.0573825478       -1.9766758822        0.7767360373
 C          2.0384812627       -3.4368544690        1.1555981871
 C          2.9503868410       -4.3866447071        0.3654222297
 C          4.2617486670       -3.7637889574       -0.1354633153
 H          4.4187254784       -2.7932513493        0.3380918004
 H          5.0933512120       -4.4079914268        0.1557992378
 C          4.3030606339       -3.6025392118       -1.6570179093
 H          3.8947890544       -4.5057690066       -2.1152933586
 H          5.3455171419       -3.5172455930       -1.9726269193
 C          3.5627869491       -2.3844209218       -2.2085036968
 H          4.1020562256       -1.4711588497       -1.9432270439
 H          3.5653688869       -2.4534888588       -3.2988430236
 C          2.1109912067       -2.2194110207       -1.7297913950
 H          1.5719271856       -1.6233357477       -2.4712977366
 H          1.6116389003       -3.1806072054       -1.6336511278
 H          2.4025795037       -4.7908280890       -0.4846571488
 H          3.1746537270       -5.2274139237        1.0240016988
 H          2.3133672002       -3.4589546202        2.2130728903
 H          1.0038383920       -3.7863105289        1.0848828338
 O          2.0506622801       -1.2172575374        1.9105170684
 C          2.0236021835        0.1651639912        1.8550317194
 O          2.0135364677        0.7265448812        2.9715340215
 H         -0.4774342636        1.2145866347        0.9304657246
 C         -0.5127867479        1.9805164525        0.1679534492
 C          0.6451531306        2.6732883178       -0.1626379618
 C          0.5707793706        3.6666099473       -1.1299956891
 C         -0.6280183379        3.9272019528       -1.7719199518
 C         -1.7659354426        3.2006362212       -1.4751451941
 C         -1.7057593228        2.2186042238       -0.4918586631
 N         -2.8458835701        1.4732904458       -0.1417071686
 S         -2.6309109526       -0.1273593547        0.3527788453
 O         -2.3005491125       -0.1380439236        1.7572814525
 O         -1.7168081031       -0.8162233985       -0.5298416670
 C         -4.2900906849       -0.7436380371        0.1297305347
 C         -4.5976557643       -1.4792481166       -0.9989454059
 C         -5.8990081895       -1.9231353881       -1.1759375663
 C         -6.8658411252       -1.6220196809       -0.2285784469
 C         -6.5420267946       -0.8824346055        0.8994541228
 C         -5.2427117697       -0.4370790341        1.0833176520
 H         -4.9405053887        0.1318805151        1.9470669751
 H         -7.2955198052       -0.6522047133        1.6351820858
 H         -7.8775814565       -1.9681687110       -0.3688585612
 H         -6.1523978104       -2.5005444488       -2.0503583851
 H         -3.8103244895       -1.6931681264       -1.7040273677
 H         -3.5892352276        1.5529238809       -0.8226686271
 H         -2.6926040846        3.3882854887       -1.9957300088
 H         -0.6712347938        4.6958416095       -2.5286329312
 H          1.4537885670        4.2258615512       -1.3925181056
 C          1.9197779703        2.2918400484        0.5521470492
 H          1.8432177276        2.6292485900        1.5968785869
 C          3.1652436576        2.8892853308       -0.0683403302
 C          3.6266816352        4.2581467626        0.3300580947
 C          4.3892870089        3.0495987905        0.7805014033
 H          5.3536646499        2.8505798745        0.3378294288
 H          4.3141181635        2.7503865011        1.8161586840
 H          4.0727243486        4.8912189827       -0.4220425626
 H          3.0405514900        4.7885287569        1.0652711080
 H          3.3053711735        2.5768364591       -1.0967502777
 O          1.9441320119        0.5589767951       -1.7368687207
