  62
        -98.94470889
 C         -2.0251430694       -1.3748998415        0.2934491992
 C         -2.6386659998       -0.7383466751       -0.8126485118
 C         -3.7748803791        0.1390629999       -0.4944208161
 C         -4.1661526570        0.2761068344        0.7856332011
 C         -5.2666256936        1.1828106883        1.2538960475
 C         -4.7212751137        2.5691708607        1.6248762817
 C         -3.8084154914        3.1791731872        0.5607314358
 H         -3.5065138132        4.1664695881        0.9175203888
 H         -2.9001526631        2.5769943614        0.4795367136
 C         -4.4507841858        3.3115228856       -0.8272405975
 H         -5.5359615627        3.2458559306       -0.7405309114
 H         -4.2165402160        4.3000756144       -1.2279089188
 C         -3.9613878117        2.2878673993       -1.8536915943
 H         -2.8682162019        2.2858474938       -1.8780505077
 H         -4.3085443093        2.6047233587       -2.8407430083
 C         -4.4415674268        0.8466296434       -1.6401001043
 H         -5.5272140729        0.8333087308       -1.5250205515
 H         -4.1823963692        0.2752689380       -2.5362075375
 H         -4.1526079897        2.4809126002        2.5536740863
 H         -5.5659442369        3.2360276789        1.8065740200
 H         -5.7291824022        0.7365889968        2.1358284266
 H         -6.0150645987        1.2731604539        0.4692866484
 O         -3.5589256553       -0.3618351146        1.8191401035
 C         -2.4650231849       -1.1850740674        1.6025111146
 O         -1.9757855768       -1.6762450694        2.6406637508
 O         -2.2570569135       -0.8897977935       -2.0017428327
 C         -0.8255720657       -2.2784418906        0.0725106501
 C          0.2835441677       -1.5077302512       -0.6029888108
 C          1.0271585362       -2.0090819641       -1.6628359859
 C          2.0263837550       -1.2452936846       -2.2423260865
 C          2.3121231027        0.0239764531       -1.7758646358
 C          1.5902778148        0.5257685714       -0.6995580912
 C          0.5944743401       -0.2429635649       -0.1176279492
 H          0.0320329568        0.1517253102        0.7202732060
 N          1.8834409544        1.8070396799       -0.2039103241
 S          3.4907961267        2.2355634283       -0.0240310577
 O          3.5031604398        3.2153484662        1.0396108018
 O          4.0203980906        2.6767147752       -1.2902788929
 C          4.3229290950        0.7429225709        0.4888749102
 C          5.3341359556        0.2155414471       -0.2879724582
 C          5.9467565287       -0.9597464015        0.1166643527
 C          5.5365068704       -1.5859488970        1.2831287366
 C          4.5212584524       -1.0416083035        2.0550542682
 C          3.9069973001        0.1342593057        1.6565106740
 H          3.1177026281        0.5840578539        2.2378460565
 H          4.2025424802       -1.5292976388        2.9624329036
 H          6.0098837054       -2.5033904332        1.5952010798
 H          6.7377792191       -1.3842005293       -0.4801504900
 H          5.6192116121        0.7337029141       -1.1890421306
 H          1.3375797464        2.0743471155        0.6013449305
 H          3.0703923101        0.6392243338       -2.2322231433
 H          2.5868478313       -1.6425826399       -3.0745246397
 H          0.8169910160       -2.9942863739       -2.0447063687
 H         -0.4765753560       -2.5709239702        1.0738186532
 C         -1.2421439749       -3.5249774608       -0.6803138859
 C         -0.5209589000       -4.8194659525       -0.4582149140
 C         -1.9085794650       -4.6335736020        0.0757281394
 H         -2.7215288940       -5.1643197174       -0.3966297364
 H         -2.0367293684       -4.4993015112        1.1402769511
 H         -0.3827525520       -5.4837345466       -1.2979023410
 H          0.2954504645       -4.8228937319        0.2478577617
 H         -1.6119968513       -3.3052151789       -1.6751152517
