  62
        -98.93740004
 C         -1.6982657244       -1.6138725967        0.2787009305
 C         -1.6976684511       -0.5054151726       -0.5987483817
 C         -2.6197224812        0.5988996220       -0.2628430120
 C         -3.3714034177        0.5098578724        0.8490036548
 C         -4.3573463375        1.5062786111        1.4054572560
 C         -5.3230171042        2.1576142672        0.4033397970
 C         -5.0290114792        3.6372600305        0.1493836567
 H         -5.9463255671        4.1214731472       -0.1929230980
 H         -4.7501450663        4.1035001248        1.0968268198
 C         -3.9448089868        3.9170484458       -0.8898595212
 H         -4.3278109146        3.6773255631       -1.8841200836
 H         -3.7395406960        4.9899992732       -0.8707497936
 C         -2.6291113204        3.1629885706       -0.6854815245
 H         -1.8469075389        3.7220690129       -1.2041370739
 H         -2.3596261719        3.1456520113        0.3703081941
 C         -2.6465322427        1.7340703319       -1.2496927364
 H         -3.5109767504        1.6061865828       -1.9073476486
 H         -1.7652586300        1.5684174155       -1.8773136878
 H         -6.3303144905        2.0814752764        0.8160588555
 H         -5.3166510675        1.6024253787       -0.5332581223
 H         -4.9229169901        0.9537097439        2.1592889244
 H         -3.8021491672        2.2808844455        1.9409111442
 O         -3.3024146435       -0.5624249507        1.6909805672
 C         -2.4825040291       -1.6453794880        1.4293584798
 O         -2.5324679361       -2.5510881655        2.2870784849
 H          0.4446365677       -1.1619161599        1.6600869166
 C          1.1188806789       -1.5118226738        0.8874542912
 C          0.6389941652       -2.3806411438       -0.0848750001
 C          1.5159116503       -2.8225497335       -1.0666987984
 C          2.8345816161       -2.4002656592       -1.0718478118
 C          3.3069630834       -1.5326756198       -0.1049869224
 C          2.4367733111       -1.0830280267        0.8804665524
 N          2.9008454563       -0.1901606758        1.8618122421
 S          3.8450883458        1.0975588743        1.3589079635
 O          5.2133548617        0.6631852493        1.2224826834
 O          3.6119128873        2.1389368664        2.3354432478
 C          3.2033999379        1.5764929347       -0.2347467948
 C          1.8872702816        1.9858315919       -0.3118464415
 C          1.3684814660        2.3425623725       -1.5447443953
 C          2.1681160768        2.2795475704       -2.6751172390
 C          3.4889395126        1.8703571203       -2.5807965976
 C          4.0145970473        1.5144775649       -1.3493119808
 H          5.0355337877        1.1898714698       -1.2302817033
 H          4.1084111391        1.8236327234       -3.4619025950
 H          1.7555223808        2.5502201502       -3.6341083593
 H          0.3399004912        2.6555033659       -1.6183318438
 H          1.2863559070        2.0233996595        0.5832315438
 H          2.1879495067        0.1128734772        2.5086552261
 H          4.3323675460       -1.2008828206       -0.0910294414
 H          3.5044556344       -2.7516112319       -1.8414659427
 H          1.1668994207       -3.4962377458       -1.8315432331
 C         -0.8070939077       -2.8078844407       -0.0097603456
 H         -0.9154970140       -3.4822809367        0.8528236638
 C         -1.2903877618       -3.5266002357       -1.2526514392
 C         -1.0994557401       -5.0059527386       -1.3939307224
 C         -2.4666072079       -4.4476267788       -1.1398968281
 H         -3.1896893343       -4.4630239945       -1.9415205909
 H         -2.9011464119       -4.5779643488       -0.1590340511
 H         -0.8869858946       -5.4082747883       -2.3729465365
 H         -0.6081725737       -5.5270946554       -0.5861023284
 H         -1.2200711124       -2.9113356141       -2.1420634430
 O         -0.9620613151       -0.4331736797       -1.6160452331
