  62
        -98.93994706
 C         -2.7711629599       -0.0763184080        0.4121691795
 C         -2.8080398825       -1.0353746677       -0.6343043149
 C         -2.2617978472       -2.3596445370       -0.3314283650
 C         -1.7840960036       -2.6112438902        0.9003170187
 C         -1.1350884505       -3.8898131327        1.3547378098
 C          0.3546400073       -3.9685832364        0.9904888890
 C          0.6475333123       -4.2537249558       -0.4837005008
 H          1.6989916209       -4.5404403098       -0.5497154796
 H          0.0544928166       -5.1071609549       -0.8154729214
 C          0.4050664125       -3.0573102009       -1.4148391840
 H          0.3797250354       -2.1391553915       -0.8226113671
 H          1.2422915942       -2.9637953652       -2.1113002905
 C         -0.8667369153       -3.1517585080       -2.2585739657
 H         -0.9671411865       -2.2240131872       -2.8280468069
 H         -0.7737792013       -3.9772074306       -2.9687319124
 C         -2.1558391104       -3.3500859384       -1.4515581356
 H         -2.2061650103       -4.3673194822       -1.0637031623
 H         -3.0051317180       -3.1856252782       -2.1196962090
 H          0.8307432107       -3.0266123325        1.2758642749
 H          0.7971242377       -4.7668270629        1.5915190295
 H         -1.6646288587       -4.7461311566        0.9354979282
 H         -1.2284116535       -3.9186944383        2.4425234311
 O         -1.8500131029       -1.7001299780        1.9037400435
 C         -2.2848775265       -0.3960229031        1.6804511126
 O         -2.2094743219        0.3252563063        2.6933927693
 O         -3.2689275408       -0.7807328944       -1.7803128036
 C         -3.1212301743        1.3428084535       -0.0045616750
 C         -1.9753371403        1.8789859507       -0.8321314256
 C         -2.1862701578        2.6577878318       -1.9626146897
 C         -1.1121399769        3.1054007708       -2.7131202648
 C          0.1831510704        2.7647622972       -2.3694699341
 C          0.4036053300        1.9659233900       -1.2507938435
 C         -0.6720949727        1.5596222518       -0.4786641008
 H         -0.4916013522        0.9643788882        0.4034497714
 N          1.6965397230        1.5232960128       -0.9333999474
 S          2.0545278247        0.8257271733        0.5552139389
 O          1.3642048210       -0.4324522389        0.6697175743
 O          1.8506502978        1.7858883500        1.6186602809
 C          3.7961391069        0.5284798634        0.3249766837
 C          4.1846750921       -0.6214444323       -0.3356524745
 C          5.5351896207       -0.8497783070       -0.5459172196
 C          6.4695182256        0.0708754149       -0.0948197002
 C          6.0648914934        1.2188630283        0.5696485987
 C          4.7153643627        1.4532539375        0.7826124494
 H          4.3546708527        2.3252447117        1.3042087380
 H          6.7937401688        1.9302056446        0.9231577628
 H          7.5200821889       -0.1094022534       -0.2591631888
 H          5.8531401689       -1.7432536223       -1.0584742361
 H          3.4213830054       -1.3106925162       -0.6584502186
 H          2.4355004907        2.1230936566       -1.2704934184
 H          1.0170879824        3.0952502712       -2.9689177749
 H         -1.2868776435        3.7161923485       -3.5858332632
 H         -3.1961286268        2.8945919294       -2.2635339681
 H         -3.9931860929        1.2561197283       -0.6740595695
 C         -3.5067947353        2.2708268128        1.1337646490
 C         -2.5444770067        3.2379876790        1.7483366574
 C         -3.6688469185        3.7436224323        0.8977532640
 H         -4.4895379200        4.2519881838        1.3804329911
 H         -3.4197883004        4.1280075217       -0.0793054582
 H         -2.5878465575        3.3750561284        2.8178840191
 H         -1.5393119992        3.2718726351        1.3545923347
 H         -4.2128771181        1.8049050984        1.8125887687
