  62
        -98.93277721
 C         -2.5319477802       -0.5039366125        0.2125877918
 C         -2.7451015141        0.6635158737        0.9825053829
 C         -2.5593108022        1.9640843680        0.3120569344
 C         -2.1702803668        1.9741882263       -0.9762007464
 C         -1.8483756403        3.1595442535       -1.8466814939
 C         -0.4687062704        3.7532119291       -1.5252346596
 C         -0.1923831529        3.9594538528       -0.0386130689
 H         -0.2350451264        2.9902464287        0.4625613152
 H          0.8351513751        4.3211000099        0.0557408252
 C         -1.1070990393        4.9572466279        0.6690319205
 H         -1.0358829160        5.9235696350        0.1650847007
 H         -0.7216153131        5.0825527896        1.6840087453
 C         -2.5846310194        4.5690487427        0.7706500068
 H         -3.1091760378        4.7632276855       -0.1610719926
 H         -3.0394415442        5.2191519395        1.5237387483
 C         -2.8384201431        3.1351542641        1.2238916303
 H         -2.2738529688        2.9434154110        2.1435539812
 H         -3.8931754174        3.0405496096        1.5095949156
 H         -0.3684615136        4.7018619253       -2.0560831272
 H          0.2908353744        3.0639244334       -1.9046067505
 H         -2.6247435665        3.9143206253       -1.7650819285
 H         -1.8382123446        2.7975319364       -2.8773079742
 O         -1.9625997116        0.8251082957       -1.6786799129
 C         -2.0929232117       -0.4280731645       -1.1112016342
 O         -1.8102546986       -1.3644531660       -1.8826136581
 O         -3.0601566769        0.6274304981        2.2045187464
 C         -2.6004444220       -1.8450376486        0.9269763593
 C         -1.2942564673       -2.5565163123        0.6802009178
 C         -1.1707674444       -3.8007214353        0.0785072707
 C          0.0809540236       -4.3172370600       -0.2139834794
 C          1.2306230264       -3.6041867970        0.0747255633
 C          1.1146290660       -2.3719500563        0.6999640566
 C         -0.1337443452       -1.8685988254        1.0142854287
 H         -0.2137923967       -0.8911209925        1.4768845905
 N          2.2863408509       -1.5915160079        0.9389699871
 S          2.5256700910       -0.5337817470       -0.3680877177
 O          1.5678161283        0.5510733811       -0.3158044259
 O          2.5596039116       -1.3189718459       -1.5749417858
 C          4.1600155548        0.0833602729       -0.0064010699
 C          4.3225605586        1.3662785851        0.4780781475
 C          5.5997334997        1.8103780239        0.7845658378
 C          6.6848934910        0.9661579606        0.6065469808
 C          6.5052132582       -0.3204624342        0.1199599497
 C          5.2315957009       -0.7692418061       -0.1896712197
 H          5.0418957686       -1.7562400231       -0.5770796206
 H          7.3517496573       -0.9734064369       -0.0184353840
 H          7.6771343024        1.3138109868        0.8470822308
 H          5.7414293820        2.8106222827        1.1611467969
 H          3.4493493373        1.9882401988        0.5957678123
 H          2.1622490385       -1.0061885098        1.7572464581
 H          2.2067264413       -3.9737927042       -0.1928307405
 H          0.1591101933       -5.2783669480       -0.6991553460
 H         -2.0559690309       -4.3492888113       -0.1997566883
 H         -2.6486673513       -1.5766159433        1.9962315059
 C         -3.8330376363       -2.6846526822        0.6391850807
 C         -5.1199874206       -2.0392535943        0.2220372086
 C         -4.3659449536       -2.9001407941       -0.7442910491
 H         -4.7732040577       -3.8709732007       -0.9868706517
 H         -3.8430431178       -2.4285223404       -1.5607421127
 H         -6.0428636232       -2.4142177225        0.6382581697
 H         -5.1114062556       -0.9701728309        0.0648391627
 H         -3.9172401372       -3.5216469152        1.3258492388
