  62
        -98.94633321
 C         -1.7797353997       -0.7533527840        0.2121967926
 C         -3.0690565003       -0.9783627346        0.7511652381
 C         -3.9798186756        0.1739601196        0.7385807018
 C         -3.5453770511        1.3504226003        0.2504340692
 C         -4.3846985895        2.5881335345        0.1252609085
 C         -5.0750862129        2.6536922807       -1.2443721730
 C         -5.7949959909        1.3631307487       -1.6358115888
 H         -6.2688980628        1.5360842369       -2.6045253705
 H         -5.0560229275        0.5710173187       -1.7775556238
 C         -6.8520547146        0.8945157241       -0.6260478488
 H         -7.7509235671        0.5995492461       -1.1715955173
 H         -7.1285630157        1.7199307927        0.0309242626
 C         -6.4309169508       -0.3077884969        0.2209828604
 H         -7.3168777938       -0.6873412741        0.7369942699
 H         -6.0660182356       -1.1053403639       -0.4312386145
 C         -5.3637114577       -0.0311906718        1.2874390705
 H         -5.6669902211        0.8210489978        1.8988683480
 H         -5.3026778576       -0.9128544218        1.9322606776
 H         -4.3191936904        2.8671271644       -2.0037261571
 H         -5.7877556705        3.4803531682       -1.2326196604
 H         -5.1286430179        2.5989232279        0.9193883930
 H         -3.7347230379        3.4575755680        0.2360569979
 O         -2.2908434546        1.5349674100       -0.2338693502
 C         -1.3800201744        0.4897090581       -0.2760859091
 O         -0.2723648450        0.7943370905       -0.7559838884
 H          1.8647135661       -1.9169434607       -0.6463348554
 C          1.7238923700       -1.6132404381        0.3769226933
 C          0.4566089818       -1.5476357771        0.9331187847
 C          0.3313191035       -1.1450109100        2.2614291775
 C          1.4430780757       -0.8070821972        3.0071081189
 C          2.7060466155       -0.8550659000        2.4414809382
 C          2.8431991210       -1.2597743977        1.1203446547
 N          4.1156897335       -1.3440677147        0.5223155879
 S          4.4321872639       -0.4640264115       -0.8675448563
 O          3.5433993206       -0.8735990003       -1.9224231159
 O          5.8452470395       -0.6616115066       -1.1096888517
 C          4.1454087830        1.2329095552       -0.3978388817
 C          5.2332051738        2.0054171934       -0.0365340249
 C          5.0228241079        3.3052982215        0.3923799678
 C          3.7312817919        3.8062559811        0.4625790240
 C          2.6518262117        3.0158631456        0.1009381429
 C          2.8533748284        1.7143889580       -0.3341815397
 H          2.0196259293        1.0926191726       -0.6204765510
 H          1.6428429098        3.3938045170        0.1517842050
 H          3.5640555157        4.8173249354        0.7994745834
 H          5.8621297318        3.9216372447        0.6718027266
 H          6.2189052072        1.5750446662       -0.1113281669
 H          4.8770785619       -1.2120398985        1.1740075014
 H          3.5772883948       -0.5861641067        3.0194585308
 H          1.3277113970       -0.4980120255        4.0349534865
 H         -0.6565490941       -1.1012877180        2.6998522607
 C         -0.7915851127       -1.9047232750        0.1657411842
 H         -1.2880430283       -2.7364008972        0.6878020638
 C         -0.5298823959       -2.3199451136       -1.2664448700
 C         -0.1172608538       -3.7264229549       -1.5776510527
 C         -1.4908367780       -3.2502640701       -1.9412817668
 H         -1.7227807850       -3.0862030055       -2.9830493629
 H         -2.3272829919       -3.6076109908       -1.3582137363
 H          0.5991347353       -3.8876658358       -2.3692811612
 H         -0.0213787763       -4.4134745545       -0.7504771001
 H         -0.1049129563       -1.5222233666       -1.8665680339
 O         -3.4373438044       -2.0871318147        1.2240754770
