  62
        -98.94049722
 C         -1.3466155906       -1.4755130395       -0.2790059259
 C         -2.5553852883       -1.4739777442        0.4606864939
 C         -3.6362213741       -0.5983725310       -0.0201028594
 C         -3.4275380789        0.1436716629       -1.1212125490
 C         -4.3616276209        1.1462236304       -1.7404076251
 C         -4.0648200235        2.5595018691       -1.2105035753
 C         -4.7928531783        2.9288351975        0.0816180849
 H         -4.3963387103        3.8919211184        0.4116228969
 H         -5.8551375019        3.0663540767       -0.1319279220
 C         -4.6499320516        1.9214699130        1.2256988930
 H         -3.6139769488        1.5812934156        1.2867806677
 H         -4.8724664654        2.4425289588        2.1590854180
 C         -5.5936017883        0.7167701669        1.0918005278
 H         -6.3387700194        0.9333174509        0.3264741420
 H         -6.1402285657        0.5817272504        2.0273570090
 C         -4.9089050110       -0.6227374457        0.7816200935
 H         -4.6344378410       -1.1167274597        1.7189932847
 H         -5.6253172553       -1.2811394989        0.2789606059
 H         -2.9841709161        2.6437436984       -1.0619675187
 H         -4.3444256643        3.2871911823       -1.9754112567
 H         -4.1686455928        1.1308760910       -2.8151560493
 H         -5.3971247259        0.8693233400       -1.5651098376
 O         -2.2586241485        0.1064063336       -1.8133089969
 C         -1.1877321757       -0.6775495687       -1.4129412723
 O         -0.1924230882       -0.5714854392       -2.1551179520
 H          0.4437234049        0.2941267308        0.2761949163
 C          0.9348733413       -0.2669868721        1.0549964452
 C          0.6866072956       -1.6225005750        1.1994908231
 C          1.3199248606       -2.3085570156        2.2312177868
 C          2.1774790789       -1.6505420885        3.0927556546
 C          2.4293973526       -0.2987990506        2.9387093349
 C          1.7996645073        0.3978255922        1.9143321695
 N          2.0163340854        1.7734393709        1.7444686489
 S          2.1724946509        2.4114982678        0.2032705038
 O          2.8109225132        3.6934393468        0.4207485170
 O          0.8909761441        2.4536637713       -0.4527241361
 C          3.3144159492        1.3093268315       -0.6089444594
 C          2.8760742256        0.3602053258       -1.5083947709
 C          3.8040627404       -0.5174928509       -2.0506851608
 C          5.1385437486       -0.4342214396       -1.6881310400
 C          5.5626765572        0.5314468155       -0.7871461126
 C          4.6431571424        1.4093405957       -0.2395506335
 H          4.9314459415        2.1825398391        0.4541522771
 H          6.6021975284        0.5992430703       -0.5096888731
 H          5.8512584215       -1.1240285709       -2.1119663953
 H          3.4693507517       -1.2638801089       -2.7538559592
 H          1.8318303589        0.3083308890       -1.7761401138
 H          2.6986937005        2.1713100053        2.3734367964
 H          3.0963922906        0.2182620508        3.6111908658
 H          2.6570457094       -2.1938120610        3.8923321198
 H          1.1240936634       -3.3612886487        2.3642932164
 C         -0.2346541926       -2.3590181888        0.2516207099
 H         -0.7414495079       -3.1434440809        0.8319467284
 C          0.5909920042       -3.0239218824       -0.8341093507
 C          1.1747380845       -4.3844768690       -0.6058545455
 C          0.0349381715       -4.2089916358       -1.5629352756
 H          0.2218370059       -4.2937618667       -2.6226303574
 H         -0.9412307496       -4.5633519953       -1.2645392414
 H          2.1545475657       -4.5952168752       -1.0052291830
 H          0.9671125447       -4.8745001746        0.3328244475
 H          1.1726351612       -2.3186577848       -1.4129386796
 O         -2.7237408982       -2.1841637764        1.4900942241
