  62
        -98.94351068
 C          1.8352391266        0.8295379976       -0.7133465807
 C          2.0871633999        0.0957720002        0.4710991998
 C          3.4964399875        0.0099779909        0.8752086310
 C          4.4421734409        0.6285399519        0.1449497968
 C          5.9163947240        0.6563720243        0.4457194583
 C          6.6811085946       -0.5748931974       -0.0591694311
 C          6.4313366517       -1.8627401517        0.7265960614
 H          7.1871629516       -2.5834995005        0.4082115707
 H          6.5887700430       -1.6745817017        1.7891087583
 C          5.0411194198       -2.4766071857        0.5100569662
 H          4.5910538784       -2.0504654663       -0.3894866290
 H          5.1404525206       -3.5510286849        0.3400280287
 C          4.0765002061       -2.2900648462        1.6812211325
 H          4.4536728081       -2.8254644621        2.5553591320
 H          3.1143930865       -2.7288092635        1.4057067273
 C          3.8337330924       -0.8264769776        2.0724321806
 H          2.9792630167       -0.7893234849        2.7525626463
 H          4.7072329217       -0.4241485927        2.5850884608
 H          6.4307541709       -0.7346125624       -1.1104720128
 H          7.7468900654       -0.3413293084       -0.0035415961
 H          6.3185533042        1.5400974472       -0.0544904167
 H          6.0692435528        0.7659065981        1.5198028917
 O          4.1535933968        1.3426292087       -0.9764413418
 C          2.8518222944        1.4482992828       -1.4395810247
 O          2.7302340059        2.1182370567       -2.4859552198
 H         -2.1018778340        0.2353032805       -0.3687030152
 C         -1.7161407637        1.0973888011        0.1479422655
 C         -0.4623133329        1.5953634497       -0.1678520744
 C         -0.0045487573        2.7249170152        0.5061563466
 C         -0.7740117392        3.3233052799        1.4841784550
 C         -2.0221350225        2.8172204732        1.8030491399
 C         -2.4947322882        1.6990595738        1.1279551830
 N         -3.7420829277        1.1474516259        1.4466744067
 S         -4.6979541908        0.4333385625        0.2801912722
 O         -4.6192670783        1.1347977874       -0.9801787409
 O         -6.0127979827        0.3669554081        0.8825935125
 C         -4.0589331302       -1.2192847470        0.1026505274
 C         -3.5501193862       -1.8742955064        1.2063077337
 C         -3.0815953061       -3.1698148794        1.0571497765
 C         -3.1367268735       -3.7887196409       -0.1823393378
 C         -3.6588607524       -3.1207113607       -1.2790022693
 C         -4.1251983084       -1.8231437350       -1.1376009460
 H         -4.5271090672       -1.2616342503       -1.9662184388
 H         -3.7013291686       -3.6036944646       -2.2424951414
 H         -2.7683971100       -4.7962671626       -0.2949645246
 H         -2.6704954157       -3.6903629187        1.9071319570
 H         -3.5128564469       -1.3640083037        2.1541614690
 H         -4.2822722738        1.6551840932        2.1310078154
 H         -2.6225167066        3.2815784674        2.5705045846
 H         -0.4016454744        4.1942448366        2.0026119949
 H          0.9698692202        3.1231327508        0.2563274619
 C          0.4128701001        0.9657649453       -1.2243418521
 H          0.4590155179        1.6541991347       -2.0813700319
 C         -0.0934201916       -0.3787193450       -1.7051946191
 C         -1.1156327305       -0.4576308731       -2.7975815823
 C          0.3033673419       -0.8555832428       -3.0687531094
 H          0.5282234609       -1.9027039097       -3.2040814221
 H          0.9175682611       -0.1958486687       -3.6646610049
 H         -1.4756109153        0.4709606338       -3.2148942095
 H         -1.8640225229       -1.2337497440       -2.7447018921
 H         -0.1373048461       -1.1144639927       -0.9099673795
 O          1.1872429997       -0.4537494756        1.1566524469
