  62
        -98.94293292
 C          1.4643649584        1.4931337697        0.1569592504
 C          2.5107068715        1.0124968546        0.9838210607
 C          3.3174163823       -0.0871976026        0.4383199745
 C          3.0000223934       -0.5995128558       -0.7646940852
 C          3.7455978325       -1.7125241915       -1.4426546662
 C          3.1626010641       -3.0898676095       -1.1000887550
 C          2.9101698312       -3.2993652813        0.3924479050
 H          2.1389468867       -2.6009830488        0.7259164356
 H          2.5099486016       -4.3078565206        0.5187391343
 C          4.1575218662       -3.1370982190        1.2726010906
 H          4.1843568221       -3.9541615610        1.9968110778
 H          5.0562457716       -3.2188584783        0.6600022022
 C          4.2094688652       -1.8337730596        2.0718494512
 H          5.0069593249       -1.9230667822        2.8144896296
 H          3.2714998779       -1.6988339857        2.6167110195
 C          4.4834340591       -0.5621684726        1.2588722434
 H          4.7008655946        0.2436434739        1.9663554707
 H          5.3637835692       -0.7113093300        0.6298235780
 H          3.8499430168       -3.8554945781       -1.4646696915
 H          2.2151147742       -3.2038878720       -1.6286599485
 H          4.7916841220       -1.6669941061       -1.1444305704
 H          3.6808163052       -1.5586330677       -2.5211111468
 O          1.9397747661       -0.1692178645       -1.4919214278
 C          1.1429806290        0.8855617964       -1.0587932696
 O          0.2127787207        1.1642058027       -1.8336834329
 O          2.7647347112        1.4889952356        2.1231976818
 C          0.6548662469        2.6737656782        0.6634529319
 C         -0.8196326280        2.4123659544        0.4929014351
 C         -1.6533992895        3.1863307267       -0.3023591344
 C         -2.9955743807        2.8709538019       -0.4264616332
 C         -3.5354740515        1.7860439640        0.2387678317
 C         -2.7088464157        1.0028623486        1.0345295227
 C         -1.3662583615        1.3216500923        1.1592545022
 H         -0.7224960368        0.7066003540        1.7769411252
 N         -3.2488571792       -0.1124149554        1.7114639281
 S         -3.9118295030       -1.3227190931        0.7605418067
 O         -5.0993404609       -0.8185915265        0.1202405717
 O         -4.0941632930       -2.4475570507        1.6501141677
 C         -2.6616897812       -1.6961101852       -0.4528612127
 C         -1.7356843254       -2.6772652675       -0.1605938308
 C         -0.7258346970       -2.9370841357       -1.0718911086
 C         -0.6509727545       -2.2033094119       -2.2457655122
 C         -1.5844531364       -1.2170009542       -2.5214551019
 C         -2.6025328991       -0.9589861747       -1.6181959319
 H         -3.3461908175       -0.2010995609       -1.8014162777
 H         -1.5125750072       -0.6371374300       -3.4266102037
 H          0.1428480445       -2.3929508198       -2.9513941659
 H         -0.0006878037       -3.7068632860       -0.8592469653
 H         -1.8309572452       -3.2265129120        0.7627585057
 H         -2.6010207277       -0.5274507581        2.3666201824
 H         -4.5755666665        1.5199066048        0.1411565225
 H         -3.6305765694        3.4783229985       -1.0535762622
 H         -1.2483701494        4.0232645967       -0.8465054411
 H          0.8686880377        2.7077059764        1.7451595585
 C          1.0965307347        4.0154013512        0.0969885355
 C          2.5184594008        4.2492833098       -0.3147413060
 C          1.4366367118        4.2058093877       -1.3497204204
 H          1.1479908559        5.1314810389       -1.8259888097
 H          1.3746833996        3.3447206041       -1.9962021393
 H          2.9704848097        5.2011107601       -0.0791850031
 H          3.2022593748        3.4151368267       -0.2530030239
 H          0.6005377193        4.8441497803        0.5931951213
