  62
        -98.93626014
 C         -1.9827400663       -1.5149842519       -0.0397562590
 C         -1.7399205300       -0.1717032312       -0.4116787027
 C         -2.9301753566        0.6623462917       -0.6588389614
 C         -4.1555583564        0.1325153021       -0.5118740770
 C         -5.4918305585        0.7921017672       -0.7407874662
 C         -5.6795665642        2.2113992189       -0.1832558617
 C         -4.8803009082        2.5248692694        1.0903768388
 H         -5.5552089872        2.9526448187        1.8342117341
 H         -4.4719770199        1.6055486807        1.5136990293
 C         -3.7478268238        3.5276049806        0.8542114854
 H         -4.1197990323        4.3261052728        0.2083464328
 H         -3.4767307499        3.9811139120        1.8105819093
 C         -2.4683751547        2.9501700783        0.2488562254
 H         -1.9519269740        2.3326607206        0.9887494961
 H         -1.8066647049        3.7862909981        0.0099913670
 C         -2.6626899925        2.0966273769       -1.0146605602
 H         -3.4450886098        2.5048385780       -1.6499969067
 H         -1.7227253201        2.1002390748       -1.5734731187
 H         -5.4210739255        2.9402344268       -0.9503696112
 H         -6.7452622695        2.3328119592        0.0177561595
 H         -5.6891167818        0.8006993727       -1.8166312713
 H         -6.2222001126        0.1192680965       -0.2851995951
 O         -4.3451762316       -1.1634274025       -0.1330872116
 C         -3.2788099368       -2.0076190392        0.1240757148
 O         -3.6093928083       -3.1518189637        0.4944278581
 H          1.8579887092       -2.0513245858       -0.2273953154
 C          1.5261137918       -1.6803553580        0.7272610832
 C          0.1998171956       -1.7961462376        1.1115939519
 C         -0.1843633905       -1.2809007875        2.3479271538
 C          0.7318267454       -0.6533560263        3.1681835163
 C          2.0534435704       -0.5292076897        2.7756332725
 C          2.4505535641       -1.0462401782        1.5487359497
 N          3.7968031497       -0.9728254292        1.1522862002
 S          4.2728306879       -0.4508771362       -0.3630503234
 O          3.6585618434       -1.2614339573       -1.3821219521
 O          5.7189434354       -0.4808554522       -0.3118932707
 C          3.7294145125        1.2449226673       -0.4780273741
 C          4.6773862059        2.2472966872       -0.3949792082
 C          4.2657777109        3.5689148341       -0.4433296255
 C          2.9162382278        3.8661826239       -0.5625788239
 C          1.9790718714        2.8481400338       -0.6380712940
 C          2.3826120174        1.5221175288       -0.5985209096
 H          1.6571047061        0.7267927376       -0.6552119337
 H          0.9258678675        3.0634672422       -0.7240574120
 H          2.5932700942        4.8949344818       -0.5965906850
 H          4.9952812780        4.3607983586       -0.3856193172
 H          5.7147138849        1.9688439214       -0.3014660445
 H          4.4075306350       -0.5730316852        1.8505521869
 H          2.7715043621       -0.0386770099        3.4152901963
 H          0.4163001803       -0.2539092751        4.1204041593
 H         -1.2186950213       -1.3747335827        2.6522151685
 C         -0.8451431398       -2.4754808875        0.2592057165
 H         -1.3007217111       -3.2765053198        0.8658012714
 C         -0.2612118703       -3.1460450776       -0.9753217416
 C         -1.0871760217       -3.3767116497       -2.2046084230
 C          0.0369619243       -2.3872398591       -2.2318428756
 H          0.9373149362       -2.6321590627       -2.7768913871
 H         -0.2034990003       -1.3362852110       -2.2487622242
 H         -0.9678241908       -4.3106644326       -2.7330151652
 H         -2.1004062902       -3.0009531578       -2.2067037935
 H          0.4331549365       -3.9394084556       -0.7138683159
 O         -0.5921224595        0.3234229869       -0.5409749018
