  62
        -98.93829150
 C         -2.4432104352       -0.6372193091        0.2756372375
 C         -2.6361993104        0.7633119542        0.4014804409
 C         -3.7759931289        1.3346453373       -0.3252953839
 C         -4.5343192813        0.5287246620       -1.0903462696
 C         -5.7549149511        0.9618428084       -1.8482843460
 C         -7.0232984933        0.7893753505       -1.0007943001
 C         -6.9107477053        1.3791579481        0.4050726489
 H         -7.8723737690        1.2263430540        0.8997588434
 H         -6.1657338747        0.8140163310        0.9698243311
 C         -6.5487565211        2.8705557900        0.4402906157
 H         -6.7439023618        3.3220401120       -0.5330626825
 H         -7.1951789470        3.3703283350        1.1648233051
 C         -5.1055704311        3.1641274034        0.8546576529
 H         -5.0218327913        4.2351526775        1.0574384865
 H         -4.8772016936        2.6363346340        1.7840593075
 C         -4.0283288550        2.8089142157       -0.1782103906
 H         -3.0836827456        3.2421209329        0.1630684977
 H         -4.2815401560        3.2544899821       -1.1423473087
 H         -7.8571716498        1.2563803846       -1.5280814023
 H         -7.2348147841       -0.2783958757       -0.9082022625
 H         -5.8400333659        0.3446140033       -2.7442213882
 H         -5.6417548908        2.0026271791       -2.1453389406
 O         -4.2967838456       -0.7992585014       -1.2208261839
 C         -3.2597046949       -1.4221400030       -0.5395292713
 O         -3.1944128959       -2.6477982563       -0.7522483748
 O         -1.8894866311        1.5008634856        1.1000813489
 C         -1.2817412252       -1.2400644531        1.0490400383
 C         -0.0997769421       -1.4520146464        0.1325314076
 C         -0.0524404952       -2.5036613421       -0.7761141121
 C          1.0413098996       -2.6582468639       -1.6086670485
 C          2.1061246617       -1.7764318113       -1.5537532673
 C          2.0690096062       -0.7226764976       -0.6505851468
 C          0.9713777205       -0.5709352871        0.1875383204
 H          0.9365897859        0.2580741403        0.8820605941
 N          3.1391704384        0.1891913075       -0.6005859399
 S          4.6994141445       -0.4593585616       -0.6571962767
 O          5.0450535823       -0.6946524654       -2.0367603531
 O          4.7900204241       -1.6046543355        0.2203787836
 C          5.6663792731        0.8925754319       -0.0152778804
 C          6.0580643489        1.9012263403       -0.8748954367
 C          6.7947986694        2.9612478943       -0.3709078925
 C          7.1250404485        2.9951455040        0.9758077159
 C          6.7261210809        1.9745471281        1.8258261644
 C          5.9880940603        0.9119700396        1.3287168127
 H          5.6662673522        0.0918646830        1.9505169667
 H          6.9876756739        2.0018770941        2.8714019176
 H          7.6999951207        3.8204382798        1.3651393098
 H          7.1097445309        3.7551144601       -1.0287610255
 H          5.7871835382        1.8275604277       -1.9151717707
 H          3.0420170742        0.8499102305        0.1583825705
 H          2.9658278992       -1.8932018103       -2.1939868983
 H          1.0659641437       -3.4776824988       -2.3116379869
 H         -0.8879871316       -3.1823380116       -0.8425525202
 H         -0.9992400879       -0.4698671756        1.7795797746
 C         -1.6492214949       -2.5004577256        1.8054292034
 C         -0.7638733866       -2.9541236707        2.9259353227
 C         -2.1203988529       -2.3908402754        3.2232785921
 H         -2.8962698929       -3.0613946979        3.5608513703
 H         -2.1786814292       -1.4029935911        3.6568409736
 H         -0.6043632413       -4.0129439389        3.0595981953
 H          0.0997605228       -2.3483309581        3.1560793421
 H         -2.1108556368       -3.2596477795        1.1885420814
