  62
        -98.93788055
 C         -1.8502355835       -0.5772062848        0.7917952367
 C         -2.2074949366        0.4806249032       -0.0751611673
 C         -3.6489575267        0.7764389603       -0.1823913032
 C         -4.5216280530        0.0545013292        0.5420231511
 C         -6.0217930014        0.1605493807        0.5437084539
 C         -6.6392449419       -0.8337901718       -0.4541070047
 C         -6.7709840757       -0.3129806093       -1.8847076127
 H         -7.0941044724       -1.1505316679       -2.5071932816
 H         -7.5574920582        0.4437731419       -1.9201858323
 C         -5.4941836859        0.2812719140       -2.4850762619
 H         -4.6398756950       -0.3501245184       -2.2340265343
 H         -5.5970248370        0.2675872473       -3.5719459078
 C         -5.2279606558        1.7239884514       -2.0300429481
 H         -6.1212003074        2.1147536458       -1.5429880535
 H         -5.0528326321        2.3529974167       -2.9054294703
 C         -4.0146699933        1.9061711692       -1.1060619776
 H         -3.1167172321        2.0688102314       -1.7110975454
 H         -4.1533983507        2.8139636775       -0.5090013208
 H         -6.0269602648       -1.7390783838       -0.4465782601
 H         -7.6352422314       -1.1100370731       -0.1022959156
 H         -6.3505874657       -0.1080079025        1.5498237137
 H         -6.3369884474        1.1778899792        0.3321425726
 O         -4.1309406885       -0.9511991347        1.3729634386
 C         -2.8000695295       -1.2948497992        1.5176246302
 O         -2.5908204780       -2.2333525602        2.3125350487
 H          2.0433728833       -0.0770083278        0.0121466006
 C          1.6511172658        0.5314553799        0.8093747929
 C          0.4267261641        0.2276646940        1.3845088118
 C         -0.0463457630        1.0374673114        2.4139715878
 C          0.6720097082        2.1403247018        2.8315604115
 C          1.8804227542        2.4565631638        2.2363590414
 C          2.3720920509        1.6447043197        1.2213161722
 N          3.6196700735        1.9142127868        0.6483428906
 S          4.0516820360        1.4205200949       -0.8842749295
 O          5.2496228519        2.1829432837       -1.1699491402
 O          2.9783967961        1.5561317380       -1.8399828301
 C          4.4980474359       -0.2933625284       -0.6932876793
 C          5.1178781088       -0.7074341068        0.4690445949
 C          5.5003474466       -2.0341251095        0.5871374327
 C          5.2682765561       -2.9182294794       -0.4553036787
 C          4.6510265260       -2.4857523158       -1.6186672329
 C          4.2605410172       -1.1611565023       -1.7406689991
 H          3.7654542617       -0.7852801164       -2.6223575392
 H          4.4717334545       -3.1738797131       -2.4296634740
 H          5.5678571977       -3.9500012034       -0.3613327402
 H          5.9792175612       -2.3743329899        1.4911433795
 H          5.2842585538        0.0042290979        1.2601217511
 H          4.0435532653        2.7913215437        0.9095193154
 H          2.4381915135        3.3241996594        2.5540569021
 H          0.2861871823        2.7644812938        3.6236847164
 H         -0.9948951927        0.7954585745        2.8744375733
 C         -0.3924379644       -0.9654554193        0.9573261279
 H         -0.3685745296       -1.7050965900        1.7715760715
 C          0.1172616269       -1.6230906978       -0.3086605383
 C          1.1697599094       -2.6870397592       -0.2344519836
 C         -0.2433206967       -3.0530407402       -0.5730914003
 H         -0.4738506605       -3.3477383881       -1.5858942023
 H         -0.8374314862       -3.5579264496        0.1749654221
 H          1.9136303170       -2.7313440145       -1.0153976442
 H          1.5416277502       -2.9539770400        0.7430591666
 H          0.1313701623       -0.9438223512       -1.1544290268
 O         -1.3668239002        1.1486328191       -0.7337218496
