  62
        -98.93700764
 C         -2.4900782138       -1.2730659045        0.2349409869
 C         -2.5633672248       -0.3107298944       -0.8004146735
 C         -3.1535609767        0.9858660121       -0.4362493510
 C         -3.5966612786        1.1970618753        0.8149312432
 C         -4.2214707062        2.4585764645        1.3463956281
 C         -3.2863237698        3.6822383105        1.4116961648
 C         -3.3721561433        4.6080782539        0.1920968929
 H         -4.3463171982        4.4784567101       -0.2809829600
 H         -3.3244795818        5.6438856502        0.5340879223
 C         -2.2687431298        4.4370214366       -0.8568332444
 H         -1.3533870033        4.9115933789       -0.4954416058
 H         -2.5811058357        4.9696376702       -1.7579765986
 C         -1.9111139662        2.9981529466       -1.2345377401
 H         -1.2913017973        3.0283519770       -2.1340241716
 H         -1.2824556244        2.5556917359       -0.4558258179
 C         -3.1211050296        2.0723046417       -1.4716282723
 H         -4.0490843706        2.6414812415       -1.4631933303
 H         -3.0253775676        1.5804993471       -2.4417579470
 H         -3.5716176717        4.2545796020        2.2957250699
 H         -2.2596887789        3.3463259884        1.5607846799
 H         -4.5627483561        2.2144289499        2.3542194856
 H         -5.0992174148        2.7019435005        0.7441026737
 O         -3.5441148873        0.2342349363        1.7739579348
 C         -2.9692923412       -0.9971703721        1.5203169390
 O         -2.9537485048       -1.7634857674        2.5040894411
 O         -2.1616437444       -0.4937650229       -1.9823580299
 C         -1.8188195286       -2.6313994217        0.0764163746
 C         -0.3274684181       -2.4400086906        0.2180484522
 C          0.3661278356       -2.9511694703        1.3084863743
 C          1.7153808098       -2.6881874904        1.4720616672
 C          2.3948001090       -1.8946974105        0.5642945046
 C          1.7074855271       -1.3766248277       -0.5248254691
 C          0.3661177599       -1.6695228169       -0.7047791453
 H         -0.1607865583       -1.2485964099       -1.5483333687
 N          2.3767153592       -0.5086245456       -1.4220262179
 S          2.6842520023        1.0104805581       -0.7544258975
 O          1.6905790570        1.3655872812        0.2351158511
 O          2.8261280434        1.9119611742       -1.8771434722
 C          4.2707396459        0.7907235823        0.0224803024
 C          4.3893342418        0.9005857656        1.3937126633
 C          5.6336104014        0.7116665311        1.9752829209
 C          6.7301494242        0.4172545501        1.1793750668
 C          6.5942853969        0.3120776193       -0.1971524464
 C          5.3536860447        0.5007044953       -0.7847148034
 H          5.2024681461        0.4330972089       -1.8490778333
 H          7.4494003683        0.0832121581       -0.8124143742
 H          7.6964175517        0.2690363460        1.6350812431
 H          5.7407392039        0.7930236712        3.0450398678
 H          3.5067952961        1.1245882780        1.9715260453
 H          1.8544026720       -0.3764794176       -2.2786634335
 H          3.4406809897       -1.6691638515        0.6960290479
 H          2.2401546649       -3.0932279304        2.3237888383
 H         -0.1673914630       -3.5358865095        2.0437833588
 H         -2.1641206257       -3.2364621434        0.9250841701
 C         -2.1825973842       -3.3510041567       -1.2059550197
 C         -1.9963314232       -4.8357505376       -1.2788418286
 C         -3.3767134938       -4.2550644360       -1.2225566859
 H         -3.9879257751       -4.2825348939       -2.1120295867
 H         -3.9374307145       -4.3583361500       -0.3048222086
 H         -1.6570768041       -5.2661878696       -2.2083840705
 H         -1.6219664936       -5.3362862554       -0.3987430747
 H         -1.9879447649       -2.7725256607       -2.0988520315
