  62
        -98.93691917
 C         -2.4633556985       -0.9122992845        0.4308184196
 C         -2.5013466291        0.2819120790       -0.3247441085
 C         -3.6429151274        1.1790541573       -0.0669800400
 C         -4.5543154532        0.8299014564        0.8574865796
 C         -5.8109730932        1.5681590767        1.2274995763
 C         -7.0084146632        1.0384233489        0.4203599268
 C         -7.2148803027        1.7049331290       -0.9393297431
 H         -8.0030015549        1.1518309089       -1.4555129929
 H         -7.5761190781        2.7242994952       -0.7877379006
 C         -5.9780879157        1.7537558361       -1.8403681060
 H         -5.4555019480        0.7962466993       -1.8008443650
 H         -6.3188385369        1.8933314089       -2.8682210665
 C         -5.0120643873        2.8918661940       -1.4788729720
 H         -5.5117657734        3.5788767230       -0.7961359869
 H         -4.7775325232        3.4654157402       -2.3780096752
 C         -3.6711716972        2.4477175901       -0.8749237356
 H         -2.9477021129        2.2778351105       -1.6785756563
 H         -3.2689590888        3.2605567912       -0.2612139910
 H         -6.8717893655       -0.0378022555        0.2864514651
 H         -7.9177050521        1.1809671400        1.0078167534
 H         -5.9895708647        1.3681005196        2.2860426811
 H         -5.6850376209        2.6378146046        1.0891900901
 O         -4.4706190469       -0.3263258373        1.5726701953
 C         -3.4349402466       -1.2212421178        1.3817161009
 O         -3.4846489087       -2.2345567121        2.1084020949
 H          0.9378164858       -1.7144880029       -1.3442074314
 C          1.0435229414       -1.2246871076       -0.3888632942
 C         -0.0092133330       -1.2276353517        0.5109974899
 C          0.1648965218       -0.5939820613        1.7391074740
 C          1.3528783293        0.0397715262        2.0454392120
 C          2.3951960018        0.0587946481        1.1344014303
 C          2.2380769468       -0.5801527601       -0.0867831882
 N          3.2826797810       -0.5555291992       -1.0221238735
 S          4.8582977027       -0.8218127945       -0.5230546473
 O          5.5538591954       -1.2745855112       -1.7079406122
 O          4.9115141035       -1.6971398824        0.6247159755
 C          5.4539058623        0.7982473804       -0.0857845268
 C          5.3279246259        1.8123113064       -1.0148179265
 C          5.7978444873        3.0757673919       -0.6941140653
 C          6.3856139710        3.3021649072        0.5416064429
 C          6.5078229570        2.2728223569        1.4622179327
 C          6.0388697906        1.0067246084        1.1477715223
 H          6.1077282954        0.1781011804        1.8347043512
 H          6.9649376374        2.4508015161        2.4223819675
 H          6.7502751160        4.2867986883        0.7884855860
 H          5.7040958060        3.8788203910       -1.4074218548
 H          4.8677319461        1.5964987635       -1.9646668948
 H          3.0783287594       -1.0307795893       -1.8885868998
 H          3.3224813988        0.5568036470        1.3652275304
 H          1.4697618614        0.5288104723        3.0007789977
 H         -0.6510699187       -0.6045420001        2.4495621097
 C         -1.3298642692       -1.9020833787        0.2287303263
 H         -1.4756422775       -2.6886462938        0.9834823390
 C         -1.4224074981       -2.5264021686       -1.1477378222
 C         -0.8415004948       -3.8845141636       -1.3999341634
 C         -2.3281988609       -3.7022720319       -1.3492439923
 H         -2.8884985245       -3.7704700597       -2.2696812707
 H         -2.8618698177       -4.0711363747       -0.4852824147
 H         -0.3628757654       -4.3854553388       -0.5718161234
 H         -0.3834661512       -4.0821920675       -2.3576876378
 H         -1.3749059584       -1.7917351898       -1.9435046324
 O         -1.6305816132        0.5855621874       -1.1817862047
