  62
        -98.94415359
 C          2.0806317128        1.3486273036       -0.0639007453
 C          2.4428114866        0.3409508593       -0.9903627358
 C          3.8182192662       -0.1694190508       -0.8786839088
 C          4.6439804744        0.3400834152        0.0524422123
 C          6.0472973153       -0.1263705340        0.3067610585
 C          6.0802082494       -1.2315747668        1.3716189218
 C          5.0757215462       -2.3573818852        1.1249935598
 H          4.0623896365       -1.9610428433        1.2251838986
 H          5.2109854216       -3.0938174580        1.9201454428
 C          5.2169238233       -3.0471509250       -0.2391350826
 H          5.1529054788       -4.1275234947       -0.0928720024
 H          6.1999779982       -2.8354335437       -0.6613985457
 C          4.1371810816       -2.6714372322       -1.2558386323
 H          3.1495890350       -2.7948126005       -0.8033744637
 H          4.2022111990       -3.3709735156       -2.0936659733
 C          4.2298413454       -1.2537789500       -1.8345033256
 H          3.5339527379       -1.1928733236       -2.6763396895
 H          5.2391646712       -1.0748961014       -2.2103650310
 H          5.8592685859       -0.7834606404        2.3431237186
 H          7.0898787764       -1.6444805856        1.4097456958
 H          6.4786703365       -0.4905376512       -0.6235748579
 H          6.6333308888        0.7236807374        0.6601891174
 O          4.2691350738        1.3213753799        0.9111040553
 C          2.9846391664        1.8338013968        0.8870340426
 O          2.7705261568        2.7138335914        1.7441147084
 H         -0.5421289175       -0.1769890939       -1.1760777134
 C         -0.8286068174       -0.0528243160       -0.1432806958
 C         -0.2795636201        0.9835216504        0.5979885729
 C         -0.6329253214        1.1037624104        1.9378026934
 C         -1.5100517629        0.2063767077        2.5209047102
 C         -2.0545415029       -0.8268158360        1.7794561472
 C         -1.7029261950       -0.9575216257        0.4421204437
 N         -2.2654873290       -1.9976473158       -0.3201175724
 S         -3.9323264328       -2.1445698086       -0.2563195039
 O         -4.3057525593       -2.9023324976        0.9124165295
 O         -4.3214549794       -2.7158266280       -1.5266600281
 C         -4.5296647004       -0.4693497246       -0.1034946402
 C         -4.2224790768        0.4253422586       -1.1096480162
 C         -4.6313830935        1.7424187202       -0.9825602300
 C         -5.3354125279        2.1414438390        0.1432477529
 C         -5.6407516531        1.2301827161        1.1418296656
 C         -5.2322312902       -0.0885071154        1.0212215540
 H         -5.4428521337       -0.8283745389        1.7761246612
 H         -6.1897851777        1.5430031078        2.0152835309
 H         -5.6470076549        3.1693483480        0.2410352735
 H         -4.3945743912        2.4535020829       -1.7575366025
 H         -3.6759982372        0.0841965871       -1.9742288223
 H         -1.9292690286       -2.0250574174       -1.2718112237
 H         -2.7382116039       -1.5377777165        2.2148840383
 H         -1.7736437430        0.3126310166        3.5620857519
 H         -0.2011789439        1.9032655662        2.5228716431
 C          0.6886146794        1.9622023520       -0.0222210921
 H          0.7679554844        2.8244291898        0.6524812262
 C          0.2243552500        2.4544225132       -1.3791456886
 C         -0.9636831117        3.3642435564       -1.4523348149
 C          0.4079394115        3.8973712949       -1.7359317983
 H          0.6662718707        4.1469398612       -2.7542857999
 H          0.8696088235        4.5399469410       -1.0003172828
 H         -1.4355350603        3.6436457708       -0.5226355812
 H         -1.6481121127        3.2491772146       -2.2785056025
 H          0.3561199134        1.7308864126       -2.1724941741
 O          1.6767478576       -0.1204186561       -1.8780615216
