  62
        -98.93493255
 C         -1.7000563902        0.2346587003       -0.8969724823
 C         -2.8901662394        0.9773477899       -0.7163512336
 C         -4.1269866276        0.1964211800       -0.5132427014
 C         -4.0649103761       -1.1452979090       -0.4893679695
 C         -5.1872943343       -2.1128142297       -0.2341915028
 C         -5.2570439977       -2.4834950418        1.2570553134
 C         -6.0979319191       -1.5407400110        2.1170292782
 H         -7.1539367460       -1.6822022413        1.8772309364
 H         -5.9562620759       -1.8377090334        3.1587695796
 C         -5.7607440852       -0.0537718625        1.9797861098
 H         -4.6772953533        0.0784865588        1.9644990964
 H         -6.1356504219        0.4579075692        2.8684224223
 C         -6.3843082210        0.5933407000        0.7342824062
 H         -6.9195365047        1.4989929099        1.0274363575
 H         -7.1296439201       -0.0833769369        0.3166536996
 C         -5.3876649954        1.0037043687       -0.3599661206
 H         -5.9058864180        1.0255722500       -1.3245309547
 H         -5.0409980569        2.0242198504       -0.1696435368
 H         -5.6754278757       -3.4878280560        1.3492089880
 H         -4.2343950329       -2.5187921473        1.6413547367
 H         -6.1325056793       -1.7086155939       -0.5839617090
 H         -4.9566093018       -3.0141467758       -0.8058310238
 O         -2.8958445859       -1.8235975798       -0.6504421370
 C         -1.7021140576       -1.1638902159       -0.8593603600
 O         -0.7192944969       -1.9185658975       -1.0018005670
 O         -2.9486450429        2.2365904462       -0.7129135114
 C         -0.3384952610        0.8645211776       -1.1387601677
 C          0.3256791285        1.3026063370        0.1448128132
 C         -0.2750688909        2.2134949060        1.0068552205
 C          0.3765838916        2.6185140101        2.1571786459
 C          1.6435294380        2.1476697414        2.4551159506
 C          2.2540309146        1.2406969891        1.5975091298
 C          1.5843258143        0.8126378679        0.4601476283
 H          2.0549185598        0.0921325851       -0.1912089547
 N          3.5352037250        0.7399854190        1.8676708587
 S          4.6195955437        0.5024185656        0.6144971695
 O          5.9192916436        0.5422820257        1.2500454994
 O          4.4068378897        1.4445858921       -0.4587712859
 C          4.3024505818       -1.1572361993        0.0567460365
 C          4.3133512739       -2.1752694361        0.9892642939
 C          4.0862913128       -3.4739470821        0.5639435338
 C          3.8558953236       -3.7317045706       -0.7789824874
 C          3.8527356997       -2.6992319554       -1.7036346736
 C          4.0791174043       -1.3981126894       -1.2840399637
 H          4.0798197432       -0.5649243827       -1.9697553777
 H          3.6703610793       -2.9010978791       -2.7470556923
 H          3.6756569818       -4.7428376514       -1.1082837651
 H          4.0869187875       -4.2809332078        1.2789083269
 H          4.4986313370       -1.9362222465        2.0231945756
 H          3.9821420877        1.1301158835        2.6845047729
 H          2.1572512900        2.4788658045        3.3450460993
 H         -0.1008421398        3.3215972548        2.8231526304
 H         -1.2533352752        2.5993265530        0.7651896743
 H          0.2813890523        0.0660894168       -1.5692587619
 C         -0.3649455467        2.0240540233       -2.1182760849
 C          0.9312344317        2.5010157681       -2.6991939575
 C         -0.0562461282        1.7753266505       -3.5621883230
 H         -0.5977573353        2.3362600805       -4.3091782111
 H          0.1722013172        0.7615162517       -3.8578745636
 H          1.0648745211        3.5611520246       -2.8524256077
 H          1.8358028680        1.9899415020       -2.4020780939
 H         -1.1157627832        2.7670226393       -1.8848461334
