  62
        -98.93689040
 C         -2.4324676960       -1.2186465704       -0.1640144773
 C         -2.2878402449        0.0379239873        0.4743398350
 C         -3.5428315491        0.7081935624        0.8481303758
 C         -4.7224298068        0.0978977708        0.6394931572
 C         -6.0808382209        0.6519557008        0.9730605654
 C         -6.6496889752        1.5889145601       -0.1014777959
 C         -5.9845058409        2.9634017699       -0.1858056222
 H         -6.6172307759        3.5868367556       -0.8205449799
 H         -5.9668630731        3.4190367663        0.8046635645
 C         -4.5652691047        2.9472395972       -0.7710896472
 H         -4.3978457488        2.0054886018       -1.2992530263
 H         -4.4649040695        3.7473080080       -1.5080181761
 C         -3.4526311875        3.1401031287        0.2596803155
 H         -3.5299962550        4.1362865084        0.7010801151
 H         -2.4903867542        3.0765589736       -0.2562366674
 C         -3.4529372469        2.1026819374        1.3902539669
 H         -2.5081046444        2.1870345127        1.9332563503
 H         -4.2734833738        2.2979620165        2.0802917706
 H         -6.5803742780        1.0908891784       -1.0713548629
 H         -7.7088607681        1.7354208949        0.1219280251
 H         -6.7501747809       -0.2051699592        1.0723798128
 H         -6.0395798548        1.1745108554        1.9289783066
 O         -4.8131679352       -1.1468949670        0.0996434163
 C         -3.6820914682       -1.8223415879       -0.3293243901
 O         -3.9150451967       -2.9447271543       -0.8204164166
 H          1.3170661865       -0.9415613017       -0.9005619289
 C          1.1249764180       -1.3964560652        0.0557079101
 C         -0.1108396521       -1.9584002908        0.3344848632
 C         -0.3248175246       -2.5141185777        1.5932585980
 C          0.6666738155       -2.4856707036        2.5539834796
 C          1.8928227882       -1.9071297681        2.2781610935
 C          2.1220473274       -1.3619197871        1.0202491664
 N          3.3829600636       -0.8199171933        0.7094540077
 S          3.5406831890        0.4960633758       -0.3338494427
 O          2.8158386297        1.6432135386        0.1640410823
 O          3.2383265926        0.0732836615       -1.6778459807
 C          5.2967045985        0.7748364358       -0.1805107991
 C          6.1599811207       -0.0372796478       -0.8912241406
 C          7.5255332509        0.1565224603       -0.7575829938
 C          8.0033490032        1.1534943528        0.0801219400
 C          7.1252628479        1.9623011731        0.7854859514
 C          5.7581897905        1.7725228844        0.6568893243
 H          5.0378556037        2.3825365367        1.1782568801
 H          7.4991317440        2.7387106718        1.4334113044
 H          9.0666452396        1.3032040835        0.1815302192
 H          8.2114114870       -0.4683002937       -1.3065792303
 H          5.7424993198       -0.7922971837       -1.5365784114
 H          3.9461445103       -0.6698852862        1.5362020021
 H          2.6651953699       -1.8758040315        3.0319141270
 H          0.4825852762       -2.9103218341        3.5296458530
 H         -1.2892634620       -2.9535159907        1.8119616904
 C         -1.2339058959       -2.0005020731       -0.6725675800
 H         -1.5819658510       -3.0446646465       -0.7454855359
 C         -0.7908648058       -1.5896712168       -2.0694587412
 C         -1.7640185753       -1.0430034311       -3.0695215979
 C         -0.7083521126       -0.1536933826       -2.4880961206
 H          0.1200734944        0.1510185318       -3.1117715415
 H         -0.9995018457        0.5940447363       -1.7665851907
 H         -2.7862026939       -0.9015821409       -2.7492475660
 H         -1.6681862278       -1.3529699493       -4.0991543063
 H         -0.0238808333       -2.2510327185       -2.4618867329
 O         -1.1830579766        0.5843273111        0.7279918130
