  62
        -98.93318832
 C         -1.7540805393       -0.8989995099        0.5528753897
 C         -2.1068102794        0.3713716803        0.0335079502
 C         -3.5333138094        0.7343892101        0.1288936403
 C         -4.3950178193       -0.1101166302        0.7213536299
 C         -5.8815262393        0.0817420196        0.8210592800
 C         -6.5477314793       -0.2557751299       -0.5281090202
 C         -7.2042487594        0.9369660603       -1.2236591097
 H         -7.4414236393        0.6300978508       -2.2445997598
 H         -8.1466671694        1.1657141901       -0.7215789496
 C         -6.3745630595        2.2238361804       -1.2697543591
 H         -6.8441412895        2.8783477307       -2.0072365188
 H         -6.4421243595        2.7389075700       -0.3102967289
 C         -4.8934757395        2.0557421607       -1.6329994092
 H         -4.6064717895        2.8870395310       -2.2802938988
 H         -4.7401229394        1.1406011910       -2.2055542295
 C         -3.9325525795        2.0724889003       -0.4290893191
 H         -2.9920786895        2.5388296205       -0.7379922089
 H         -4.3562828296        2.6893674699        0.3682523111
 H         -5.7907846292       -0.6898242496       -1.1848497603
 H         -7.3082439092       -1.0232234600       -0.3763933005
 H         -6.2434114793       -0.5882271508        1.6013418497
 H         -6.1019815894        1.1064135895        1.1120407004
 O         -4.0107804392       -1.3020979104        1.2469501995
 C         -2.6936138992       -1.7214098903        1.1827826793
 O         -2.4847643291       -2.8274430905        1.7189891488
 H          1.3246482007        0.2573805709       -0.8662122098
 C          1.4053400206        0.3924920505        0.2012793103
 C          0.6215573707       -0.3721416999        1.0506475299
 C          0.7215205706       -0.1557040805        2.4212090800
 C          1.5885775406        0.7948834593        2.9290193504
 C          2.3725777705        1.5538848798        2.0772624008
 C          2.2659215006        1.3552426903        0.7088143207
 N          3.0930017205        2.1097465208       -0.1611216490
 S          4.6728206806        1.5539266309       -0.2096144492
 O          5.2738263405        1.7590279004        1.0830277709
 O          5.3038670805        2.2195200015       -1.3265928089
 C          4.5071925107       -0.1918538689       -0.5396091799
 C          4.3120629308       -1.0560389894        0.5193398497
 C          4.0663660309       -2.3937424793        0.2545732092
 C          4.0174086509       -2.8409610388       -1.0570509710
 C          4.2193500709       -1.9609987783       -2.1095713207
 C          4.4590919708       -0.6210752984       -1.8508947301
 H          4.6195102707        0.0968535120       -2.6393973798
 H          4.1825979109       -2.3135346279       -3.1279309308
 H          3.8189715410       -3.8819939787       -1.2593381515
 H          3.9042281409       -3.0794214897        1.0707400789
 H          4.3574725207       -0.6704484398        1.5247528699
 H          2.7270669805        2.1520349411       -1.1025640390
 H          3.0689701304        2.2872314397        2.4504252211
 H          1.6560373605        0.9458891689        3.9958253605
 H          0.1065371807       -0.7448623108        3.0879678798
 C         -0.3265941692       -1.4221438598        0.5319638795
 H         -0.3263079992       -2.2583852901        1.2487247391
 C          0.1209798409       -1.9981663392       -0.8040536008
 C         -0.8209298690       -2.8222336389       -1.6285154011
 C         -0.3649866192       -1.4843302587       -2.1243678106
 H          0.3349257209       -1.4562273383       -2.9470002905
 H         -1.0679950192       -0.6666181888       -2.1234917502
 H         -0.4431005890       -3.7097074987       -2.1126889915
 H         -1.8370619390       -2.9165969192       -1.2730405912
 H          1.1533738909       -2.3336509091       -0.7660958409
 O         -1.2920907294        1.1727618505       -0.4921942795
