  62
        -98.94289219
 C         -2.4475464583       -0.1121070480        0.0465852536
 C         -1.5944040108        0.3545227967       -0.9815511049
 C         -1.3297272475        1.7985622608       -1.0000633101
 C         -1.8609887955        2.5743055836       -0.0385357100
 C         -1.5627515644        4.0325029809        0.1619241509
 C         -0.1855672363        4.1815949836        0.8420196180
 C          0.8729489572        4.8733447915       -0.0174066990
 H          0.6659477243        5.9458531238       -0.0438325522
 H          1.8339297272        4.7318448111        0.4825583333
 C          0.9853862222        4.3775231103       -1.4623816430
 H          0.2014424549        4.8354741597       -2.0681290990
 H          1.9369860886        4.7456003779       -1.8516986473
 C          0.9303815650        2.8561239529       -1.6530696794
 H          1.2335422097        2.3416926290       -0.7400102030
 H          1.6498945419        2.5822401339       -2.4278965548
 C         -0.4448627941        2.3210031748       -2.0971773658
 H         -0.9764133143        3.0925484295       -2.6612461806
 H         -0.2890791525        1.4687916332       -2.7650222973
 H         -0.2959246036        4.7461656556        1.7698902651
 H          0.1706341071        3.1866961968        1.1213936259
 H         -1.5768077810        4.5496086941       -0.7950329070
 H         -2.3474408809        4.4457647739        0.7964117240
 O         -2.6728750915        2.0904918683        0.9380566446
 C         -2.9619963193        0.7385702261        1.0216101380
 O         -3.6766231622        0.4217745616        1.9972199310
 H         -0.8218043803       -0.8974396211        1.9143868278
 C         -0.4812269087       -1.7184381429        1.2942612947
 C         -1.3482334533       -2.2679101058        0.3565388809
 C         -0.8948549349       -3.3262078830       -0.4190030551
 C          0.4073058585       -3.7820724073       -0.2945329605
 C          1.2878341555       -3.1792762793        0.5858297042
 C          0.8309648264       -2.1435437078        1.3891101913
 N          1.7617920810       -1.4574248242        2.2279066306
 S          2.2254816996       -0.0048721558        1.4946016686
 O          3.2003264886        0.5898711786        2.3854437418
 O          1.0810553414        0.8310702033        1.1979872383
 C          3.0124711427       -0.5744216763        0.0084558948
 C          4.3497711720       -0.9156529034        0.0735018768
 C          4.9706544992       -1.4114721064       -1.0610467108
 C          4.2440211485       -1.5631021057       -2.2329157061
 C          2.9021046880       -1.2187407596       -2.2789024670
 C          2.2732139387       -0.7194652905       -1.1484843131
 H          1.2276148297       -0.4522870605       -1.1592059279
 H          2.3300835917       -1.3392330139       -3.1848285682
 H          4.7254132737       -1.9526421454       -3.1161205425
 H          6.0141638904       -1.6804146838       -1.0278920952
 H          4.8696520171       -0.7777588831        1.0073186757
 H          1.3725400333       -1.2308861092        3.1343823328
 H          2.3169657546       -3.4912163643        0.6575114400
 H          0.7481832908       -4.5970437858       -0.9138873213
 H         -1.5551633386       -3.7779434877       -1.1410470291
 C         -2.6951595057       -1.6057221419        0.1948006610
 H         -3.2681414000       -1.7324240640        1.1246808163
 C         -3.5065127032       -2.1406248529       -0.9647698329
 C         -4.3519710652       -3.3653433864       -0.7888973231
 C         -4.9990488053       -2.0202289403       -0.9206357758
 H         -5.5241306864       -1.7852388949       -1.8341198294
 H         -5.4338892825       -1.5692983140       -0.0401784731
 H         -4.4382631892       -4.0556881391       -1.6141142196
 H         -4.3558177002       -3.8351262857        0.1830353828
 H         -3.0202855701       -1.9831174198       -1.9201751214
 O         -1.0686249971       -0.4028719196       -1.8393086714
