  62
        -98.94090630
 C         -1.7352142953       -1.3666816333        0.6226335366
 C         -1.8114261012       -0.0575592229        1.1652654663
 C         -3.0795351795        0.6541354955        0.9760999455
 C         -4.1061561297        0.0311120062        0.3704457914
 C         -5.4794386859        0.6021941297        0.1414928930
 C         -5.5961720566        1.4663056221       -1.1215129325
 C         -4.9111070113        2.8309463359       -1.0402317505
 H         -5.2521019651        3.4119644126       -1.8994293449
 H         -5.2462623446        3.3511894147       -0.1423781210
 C         -3.3774936019        2.7691886053       -1.0621699905
 H         -3.0577687139        1.7910974555       -1.4291364995
 H         -2.9933448834        3.5137724932       -1.7628077351
 C         -2.7096970632        3.0314984959        0.2877932689
 H         -1.6313875226        2.9139441427        0.1570976902
 H         -2.9061034103        4.0594011313        0.6005160141
 C         -3.1584476961        2.0863764275        1.4104414857
 H         -4.1710567439        2.3332666839        1.7290516693
 H         -2.4845520860        2.2130827626        2.2613759408
 H         -5.1917073496        0.9050406535       -1.9670261767
 H         -6.6604710624        1.6272354940       -1.3085811773
 H         -5.7828857421        1.1848479314        1.0118781216
 H         -6.1564947763       -0.2488209054        0.0398938907
 O         -4.0112940013       -1.2404525883       -0.0960290728
 C         -2.8189935881       -1.9571899085       -0.0289695815
 O         -2.8846038219       -3.0759794910       -0.5690792651
 O         -0.8616774610        0.4868433684        1.7876776129
 C         -0.4021294533       -2.0772560044        0.7705679461
 C          0.5121076663       -1.7368488802       -0.3797001859
 C          0.0661728728       -1.7994619049       -1.6964559684
 C          0.9178285589       -1.4845539317       -2.7390128833
 C          2.2215984210       -1.0920914679       -2.4904087191
 C          2.6785387164       -1.0279067557       -1.1792327484
 C          1.8221596046       -1.3531114441       -0.1348987065
 H          2.1922723063       -1.3035727361        0.8774222181
 N          4.0031065234       -0.6594703525       -0.9046133793
 S          4.3764627885        0.3288418150        0.3928170124
 O          5.7274134581        0.7684477774        0.1214200551
 O          4.1775654028       -0.3853064021        1.6278381452
 C          3.2549249627        1.7076955682        0.2660502634
 C          3.5209105876        2.6699570972       -0.6900115026
 C          2.6419435248        3.7293496833       -0.8384065940
 C          1.5132148685        3.8078267816       -0.0351308473
 C          1.2646497184        2.8379467736        0.9223590713
 C          2.1405148953        1.7749139662        1.0749228203
 H          1.9547128655        1.0079041384        1.8081387584
 H          0.3873604572        2.8768583907        1.5478935171
 H          0.8252728606        4.6305089666       -0.1536408688
 H          2.8356337085        4.4889596885       -1.5786810133
 H          4.4158469662        2.5814212454       -1.2845052659
 H          4.5467059269       -0.4116451959       -1.7183690978
 H          2.8836894370       -0.8437282310       -3.3056260593
 H          0.5617566308       -1.5409294562       -3.7566349534
 H         -0.9502061994       -2.1081886635       -1.8914050251
 H          0.0485621203       -1.6484895947        1.6806122414
 C         -0.5268803819       -3.5770747871        0.9963266768
 C         -0.1279505655       -4.6003884877       -0.0196800948
 C          0.7056221488       -4.4055905169        1.2090703135
 H          0.6908781191       -5.1675413396        1.9736983893
 H          1.6610746253       -3.9148818384        1.0942390260
 H         -0.7386811655       -5.4862871706       -0.1018602744
 H          0.2660683820       -4.2567752171       -0.9630647122
 H         -1.3882428792       -3.8229755280        1.6089412063
