  62
        -98.94272247
 C         -1.2030927790       -1.6317964327       -0.3122257514
 C         -0.0447562608       -1.7067540246       -1.1158033506
 C          1.1474798194       -2.3223064788       -0.5074044173
 C          1.1007182236       -2.7099337405        0.7807883187
 C          2.1360550222       -3.3698135594        1.6685661754
 C          3.5712897979       -3.5556780543        1.1865240015
 C          4.3817756745       -2.2619278068        1.1026787157
 H          4.5973940421       -1.9255715703        2.1202266989
 H          5.3343414887       -2.4827724196        0.6159650908
 C          3.7096362964       -1.1003061032        0.3739564713
 H          4.3832086229       -0.2404719679        0.4400507824
 H          2.7854008814       -0.8201402769        0.8865611930
 C          3.4101640053       -1.3409505047       -1.1036668183
 H          4.3314703060       -1.6069573450       -1.6262347653
 H          3.0412786819       -0.4007832405       -1.5221130920
 C          2.3560252628       -2.4189859124       -1.3952275324
 H          1.9941077553       -2.2649310104       -2.4162426426
 H          2.7884989288       -3.4155072794       -1.3480775986
 H          3.5816995229       -4.0826111123        0.2369647009
 H          4.0648051745       -4.2054086938        1.9144439423
 H          1.7218065607       -4.3523655337        1.9207086003
 H          2.1413558010       -2.7914175534        2.5986678404
 O         -0.0318930596       -2.5779318853        1.5322871130
 C         -1.1950099220       -2.0307412546        1.0227300773
 O         -2.1348086767       -1.9681432934        1.8394543500
 O         -0.0064862296       -1.2828029945       -2.3036485510
 C         -2.4600692894       -0.9939689645       -0.8774434378
 C         -2.7790850795        0.2406031017       -0.0715727705
 C         -4.0373739345        0.5368436593        0.4338240196
 C         -4.2244972921        1.6595698295        1.2226938957
 C         -3.1681183772        2.4958986288        1.5318405582
 C         -1.9081695158        2.2175847544        1.0117417420
 C         -1.7325905306        1.1158361458        0.1930263277
 H         -0.7517827516        0.8972304463       -0.2039101451
 N         -0.8157062155        3.0551596761        1.2777774287
 S          0.7557594800        2.4933992693        1.2479185570
 O          0.8647811480        1.1130358548        1.6628716320
 O          1.4936333725        3.4457219331        2.0532931952
 C          1.2835367593        2.6742928112       -0.4451412678
 C          2.5772597695        2.2848553261       -0.7309297574
 C          3.0571677212        2.4267063713       -2.0228407976
 C          2.2360744314        2.9555291114       -3.0065415424
 C          0.9420033065        3.3471382917       -2.7034563318
 C          0.4574274439        3.2108682232       -1.4112610522
 H         -0.5466281009        3.5054953428       -1.1547043936
 H          0.3042311035        3.7576768270       -3.4697402681
 H          2.6071104471        3.0615278960       -4.0136562485
 H          4.0650947623        2.1225226325       -2.2565027147
 H          3.1784614604        1.8755187111        0.0652077864
 H         -0.9605074470        3.7575569949        1.9868692387
 H         -3.3101713368        3.3530128503        2.1720663338
 H         -5.2050521045        1.8754961595        1.6191260108
 H         -4.8671722124       -0.1188517234        0.2275261824
 H         -2.1991941490       -0.6859932184       -1.9008420518
 C         -3.5947695402       -1.9935121602       -0.9378349936
 C         -4.6774605862       -1.8453862578       -1.9638591799
 C         -3.6648993985       -2.9417620077       -2.0959477183
 H         -3.9750567215       -3.9590730854       -1.9103190009
 H         -2.9046085065       -2.8497146430       -2.8576830165
 H         -5.6869653853       -2.1126721707       -1.6903079230
 H         -4.6098604799       -1.0101028637       -2.6440661023
 H         -3.8613045261       -2.3775850554        0.0405248615
