  62
        -98.93884936
 C          2.4449308483        1.1400941365       -0.3155981826
 C          2.4332711813       -0.1917608434       -0.7952194678
 C          3.7498515203       -0.8321452386       -0.9320323543
 C          4.8586199554       -0.1355187864       -0.6227909363
 C          6.2549659142       -0.6844381960       -0.6600020975
 C          6.6530246208       -1.2783808596        0.6985965061
 C          5.6137834291       -2.2352880463        1.2829929159
 H          6.0145371977       -2.6137895699        2.2258702593
 H          4.7067024439       -1.6749936989        1.5216150968
 C          5.2531586342       -3.4154634076        0.3700095674
 H          6.0225346340       -3.5422693625       -0.3924502869
 H          5.2362332304       -4.3285349820        0.9687738179
 C          3.8852108357       -3.3000871174       -0.3051842090
 H          3.1221549833       -3.0785168318        0.4455096055
 H          3.6401584860       -4.2706963593       -0.7445000560
 C          3.7789220289       -2.2529042310       -1.4209335873
 H          4.5869468931       -2.3975522024       -2.1408416626
 H          2.8263856382       -2.4108951505       -1.9350318982
 H          7.6052161573       -1.7991249874        0.5822036252
 H          6.7983557660       -0.4580930923        1.4053912212
 H          6.3201758481       -1.4457715542       -1.4347283512
 H          6.9384353489        0.1302950574       -0.9047460909
 O          4.8294345289        1.1498026307       -0.1853071801
 C          3.6267735099        1.8129161689       -0.0066211134
 O          3.7402336691        2.9777190692        0.4272977554
 H         -1.4756262044        1.0116969251       -0.3900786647
 C         -1.0410129794        0.7603513070        0.5610222147
 C          0.2616207037        1.1296256093        0.8558957242
 C          0.7897435022        0.7944101309        2.1002738875
 C          0.0318384550        0.1028805379        3.0241601955
 C         -1.2707230046       -0.2586249110        2.7287892064
 C         -1.8094330936        0.0699737806        1.4899510634
 N         -3.1155146294       -0.3433555127        1.1686548015
 S         -4.2686391335        0.6237207758        0.4173665153
 O         -3.6785716219        1.3875911895       -0.6489649109
 O         -4.9872783401        1.3793567104        1.4245318667
 C         -5.3305721510       -0.6381393383       -0.2560915949
 C         -6.6122580669       -0.8067924662        0.2292685352
 C         -7.4081369411       -1.8039391863       -0.3134892728
 C         -6.9098518032       -2.6104959031       -1.3249149796
 C         -5.6195798573       -2.4286600539       -1.8014683143
 C         -4.8196642123       -1.4334269149       -1.2638540602
 H         -3.8124424643       -1.2561935452       -1.6051705097
 H         -5.2346534027       -3.0579802750       -2.5878587802
 H         -7.5299821185       -3.3859567029       -1.7462032743
 H         -8.4116383553       -1.9476588616        0.0534320514
 H         -6.9584854041       -0.1541235512        1.0143133988
 H         -3.5637243108       -0.8153622447        1.9433291800
 H         -1.8637741462       -0.8000036037        3.4508344299
 H          0.4544374414       -0.1530662755        3.9844220414
 H          1.8071065303        1.0837556784        2.3295454530
 C          1.1370835857        1.8848295238       -0.1153139578
 H          1.4025774468        2.8468725070        0.3479194765
 C          0.4734088469        2.1572305786       -1.4480258271
 C         -0.4687012535        3.3128741632       -1.5918886992
 C          0.8831860972        3.3630900565       -2.2365325175
 H          0.9469542738        3.2792185592       -3.3110131345
 H          1.6339679498        4.0080071480       -1.8029765027
 H         -0.6395181563        3.9269065046       -0.7201289252
 H         -1.3420871361        3.1929539203       -2.2151024746
 H          0.2568104273        1.2503773637       -2.0009822742
 O          1.3823037028       -0.8166594014       -1.0932751092
