  62
        -98.94159349
 C         -2.7736244212       -0.6534650995       -0.3352880508
 C         -2.0979376312        0.2794015404       -1.1597747407
 C         -2.4124639112        1.6959478504       -0.9208211408
 C         -3.3352632713        2.0275129305       -0.0011550109
 C         -3.7168979914        3.4299038905        0.3716582289
 C         -2.8750377715        3.9408120306        1.5489562790
 C         -1.3711107215        3.7224192906        1.3782439192
 H         -0.8782819116        4.1575479606        2.2507870992
 H         -1.1533045315        2.6511867406        1.3959842493
 C         -0.7786402814        4.3332680205        0.1009086892
 H         -1.4570912813        5.0884458605       -0.2988722009
 H          0.1557341186        4.8360906805        0.3586778693
 C         -0.4467904412        3.3152405105       -0.9921079707
 H          0.1731079488        3.8150124304       -1.7418472507
 H          0.1473579887        2.5035619205       -0.5611492306
 C         -1.6531288211        2.7127058604       -1.7252147108
 H         -1.2789630910        2.1814387904       -2.6050601807
 H         -2.3151806211        3.5129016804       -2.0625969009
 H         -3.0755828815        5.0058160506        1.6798894989
 H         -3.1939230416        3.4204120906        2.4550928690
 H         -4.7691465614        3.4334314005        0.6612396788
 H         -3.5848741613        4.0787255904       -0.4918420011
 O         -4.0057722914        1.1036975405        0.7332162690
 C         -3.7154464413       -0.2431980195        0.6141454991
 O         -4.3664950414       -0.9742273195        1.3875928091
 O         -1.2714760111       -0.0272789196       -2.0610901106
 C         -2.4875666712       -2.1496828395       -0.3625065207
 C         -1.2001831613       -2.3928933495        0.3885812795
 C         -1.2074776114       -2.9579308794        1.6587084695
 C         -0.0334975915       -3.0858136394        2.3812422296
 C          1.1688236186       -2.6402218294        1.8603587997
 C          1.1828502487       -2.0727578594        0.5938319897
 C          0.0118765688       -1.9722899295       -0.1399725104
 H          0.0320163889       -1.5070929295       -1.1141158404
 N          2.3977614687       -1.5616533394        0.0664164398
 S          2.8643773386       -0.1261839594        0.8387100198
 O          3.1884120585       -0.4395401993        2.2076264399
 O          1.8637433186        0.9007833706        0.6426838797
 C          4.3496374187        0.2675464306       -0.0635274101
 C          5.5159943487       -0.3962773594        0.2649003401
 C          6.6649906588       -0.1293094594       -0.4619120998
 C          6.6277057889        0.7899593505       -1.5000025798
 C          5.4492813289        1.4482909605       -1.8172937000
 C          4.2957904688        1.1846501205       -1.0949771001
 H          3.3584312088        1.6761315305       -1.3034743902
 H          5.4228899190        2.1635024005       -2.6236797800
 H          7.5229522989        0.9961208005       -2.0651049198
 H          7.5836101087       -0.6381021894       -0.2182262897
 H          5.4972145386       -1.0965978694        1.0832328001
 H          2.2800241988       -1.3407966695       -0.9161957902
 H          2.0830549085       -2.6970780593        2.4279018898
 H         -0.0572136916       -3.5244696393        3.3675316097
 H         -2.1479180715       -3.2718176494        2.0890817094
 H         -3.3027571613       -2.6199679295        0.2028561993
 C         -2.4667599311       -2.7401104596       -1.7575843106
 C         -2.6133001510       -4.2227312796       -1.9157560006
 C         -3.7285180010       -3.3107388696       -2.3283838607
 H         -3.9236800209       -3.1749223697       -3.3814800708
 H         -4.6155978511       -3.2770411296       -1.7125541108
 H         -2.0415057809       -4.7172888596       -2.6857448505
 H         -2.7442389011       -4.8093299196       -1.0189385706
 H         -1.8067901810       -2.2217345096       -2.4397479606
