  62
        -98.93577879
 C          2.3083593194        1.0442627649        0.1306682576
 C          3.5587604641        0.9379730754        0.7901467860
 C          4.5566960255        0.0152918018        0.2158651241
 C          4.2211978042       -0.6971667103       -0.8751235358
 C          5.0422369438       -1.7231802393       -1.6100965097
 C          5.1123793307       -3.0675523126       -0.8685069398
 C          5.3716482534       -2.9607617072        0.6319240152
 H          4.5835782143       -2.3596171027        1.0891794887
 H          5.2964879726       -3.9667491780        1.0532140163
 C          6.7351596072       -2.3926188513        1.0186034378
 H          7.5193435402       -3.0154632354        0.5825587768
 H          6.8194262362       -2.4658897978        2.1058565829
 C          6.9919325168       -0.9373267567        0.6209696303
 H          7.2404101269       -0.8556169178       -0.4338290006
 H          7.8735267350       -0.6002718719        1.1739703619
 C          5.8635619806        0.0271960483        0.9719228172
 H          5.6023481332       -0.0947347848        2.0292244920
 H          6.2429732743        1.0527884584        0.8869002791
 H          5.8896742635       -3.6768648064       -1.3328546952
 H          4.1559674161       -3.5784929656       -1.0056420331
 H          6.0379795981       -1.3356879364       -1.8044079597
 H          4.5532457229       -1.8834231269       -2.5736855916
 O          2.9941603168       -0.5906924435       -1.4581846983
 C          2.0114297926        0.2669161554       -0.9897081354
 O          0.9611352347        0.2330935777       -1.6590320948
 O          3.8393533530        1.5900263350        1.8315288674
 C          1.2861202827        1.9919823238        0.7350924463
 C         -0.0246673583        1.2756199658        0.9299161364
 C         -0.1882982869        0.4327740945        2.0251612236
 C         -1.3633753364       -0.2729210795        2.2022546211
 C         -2.3943539342       -0.1624038745        1.2853673255
 C         -2.2312464846        0.6581541878        0.1778355806
 C         -1.0605197825        1.3878910683        0.0170195128
 H         -0.9391557316        2.0144774405       -0.8527735890
 N         -3.2642998722        0.7710030846       -0.7664439211
 S         -4.0923894404       -0.6070290940       -1.2442892345
 O         -3.2817063503       -1.7985486416       -1.1495619849
 O         -4.6223800946       -0.2899627597       -2.5530410467
 C         -5.4455365739       -0.6967596260       -0.0870699175
 C         -5.6929372236       -1.8723503867        0.5941417971
 C         -6.7582606774       -1.9236406898        1.4798776839
 C         -7.5543452774       -0.8042829821        1.6670427375
 C         -7.2948361896        0.3681963593        0.9730464656
 C         -6.2323436114        0.4253241555        0.0854901406
 H         -5.9995007361        1.3152169375       -0.4748244574
 H         -7.9162284678        1.2366909371        1.1209898395
 H         -8.3817816783       -0.8460640695        2.3576339364
 H         -6.9614647663       -2.8349383772        2.0191317471
 H         -5.0441344442       -2.7163654029        0.4204444456
 H         -3.0137465625        1.3313654344       -1.5684604688
 H         -3.3070736298       -0.7220749297        1.4083098461
 H         -1.4785714073       -0.9192844904        3.0591303231
 H          0.6235290708        0.3304950055        2.7321525760
 H          1.6962112253        2.2304967553        1.7296569982
 C          1.1338051332        3.3173947452        0.0035386496
 C          2.3344729904        4.0161504049       -0.5589213735
 C          1.2884857181        3.4656939551       -1.4791660211
 H          0.6400192375        4.1627984589       -1.9903982548
 H          1.5195750476        2.5849186130       -2.0575161301
 H          2.4111804818        5.0868335906       -0.4449859858
 H          3.2813018650        3.4994887144       -0.4981997849
 H          0.3855406030        3.9476712133        0.4749605117
