  62
        -98.93601849
 C         -1.7986045009       -0.7265017891        0.8230053802
 C         -2.2079616307       -0.3552798502       -0.4800172002
 C         -3.6585321906       -0.3824485604       -0.7297477705
 C         -4.4877955408       -0.7749348195        0.2544771397
 C         -5.9883560508       -0.7843176395        0.1793518594
 C         -6.5330113608        0.6476748707        0.3549552480
 C         -7.2344459305        1.2110959296       -0.8811163226
 H         -8.2235355205        0.7560317296       -0.9659047724
 H         -7.3775966705        2.2812106898       -0.7164942036
 C         -6.5076870903        1.0039636484       -2.2135241223
 H         -6.9776689601        1.6720306677       -2.9384622230
 H         -6.6795498503       -0.0123724519       -2.5709509414
 C         -4.9969961503        1.2720447383       -2.2036735022
 H         -4.7324669104        1.9569871490       -1.3977082528
 H         -4.7345305201        1.7683065375       -3.1401777026
 C         -4.1216458104        0.0084271384       -2.1059543809
 H         -4.6426841603       -0.8334190920       -2.5701121903
 H         -3.2002123802        0.1775921278       -2.6709390709
 H         -7.2375567010        0.6698316315        1.1877738279
 H         -5.7009717508        1.2989457609        0.6311335776
 H         -6.3066267207       -1.2011306403       -0.7734844303
 H         -6.3495796210       -1.4287592988        0.9810510599
 O         -4.0517330411       -1.1440874284        1.4877788801
 C         -2.7039803311       -1.1217011481        1.8062217904
 O         -2.4438851714       -1.4671576471        2.9771133607
 H          2.1711774192       -0.0728283298        0.2270613003
 C          1.5755661092        0.7933590205        0.4627521694
 C          0.2848728191        0.6433718110        0.9470452193
 C         -0.4452313609        1.7875456513        1.2574465782
 C          0.0921139792        3.0446712011        1.0624175871
 C          1.3805114992        3.1894724506        0.5790168472
 C          2.1264346893        2.0555365603        0.2856091684
 N          3.4352955894        2.1653101298       -0.2072221214
 S          4.6239309992        1.1341988703        0.3620326197
 O          4.3897153489        0.7566631315        1.7362463900
 O          5.8668574093        1.8293085400        0.0997725093
 C          4.5409659894       -0.2968938407       -0.6935547190
 C          4.8304627792       -1.5357672402       -0.1570068678
 C          4.8198887193       -2.6463335409       -0.9868319768
 C          4.5207358696       -2.4988948121       -2.3323259470
 C          4.2331388697       -1.2472761526       -2.8555596582
 C          4.2472741996       -0.1324227919       -2.0326711692
 H          4.0251111097        0.8529676378       -2.4066138301
 H          3.9971592499       -1.1368092135       -3.9017420984
 H          4.5098773197       -3.3644383127       -2.9759170462
 H          5.0429243092       -3.6201966206       -0.5803921959
 H          5.0445612990       -1.6075822393        0.8974152223
 H          3.7765853894        3.1111204297       -0.2988865622
 H          1.8043158293        4.1712361304        0.4308829664
 H         -0.4931036709        3.9212396313        1.2972042862
 H         -1.4478237810        1.6779287317        1.6486238081
 C         -0.3248990210       -0.7176810488        1.1817059704
 H         -0.2720210612       -0.9269305678        2.2610757006
 C          0.3892370991       -1.8284975295        0.4375477816
 C          1.5592021989       -2.5312828390        1.0556969324
 C          0.2421739089       -3.2350670590        0.9321162828
 H          0.1474076890       -4.0299016597        0.2079117335
 H         -0.3471204312       -3.3847928682        1.8253808328
 H          1.8763607688       -2.2094448881        2.0366337822
 H          2.3678892891       -2.8438174496        0.4122990229
 H          0.3942413393       -1.6710652205       -0.6350271286
 O         -1.4049741205       -0.0170402011       -1.3878127804
