  62
        -98.94319947
 C          1.4608523750        1.5283152317        0.1628320445
 C          2.4709083806        1.0086810779        1.0113248378
 C          3.2577539839       -0.1056793970        0.4723673687
 C          2.9736246928       -0.5922569136       -0.7494651415
 C          3.7337400843       -1.6748212945       -1.4677991667
 C          3.3206017554       -3.1035717186       -1.0916487624
 C          3.7428728471       -3.5588834030        0.3052264417
 H          3.5734760092       -4.6362317159        0.3577122193
 H          4.8128133556       -3.3930182401        0.4348583133
 C          2.9725089863       -2.8802773609        1.4466350397
 H          2.0690244828       -2.4117636878        1.0487183781
 H          2.6513581492       -3.6333427903        2.1698348267
 C          3.7781372188       -1.8310070998        2.2129328351
 H          4.6148184943       -2.3123826381        2.7243487883
 H          3.1310165589       -1.3869993735        2.9740341150
 C          4.3287697414       -0.6966824723        1.3385527900
 H          4.7004909414        0.0933464420        1.9959602287
 H          5.1554894995       -1.0603135115        0.7282477804
 H          2.2371034596       -3.1863500927       -1.1855598825
 H          3.7746861066       -3.7765403199       -1.8225964039
 H          3.5424591656       -1.5312868703       -2.5334012633
 H          4.8018855974       -1.5455279842       -1.2886426634
 O          1.9527705396       -0.1119050409       -1.5049021573
 C          1.1614129424        0.9462168732       -1.0708488925
 O          0.2565820390        1.2539919930       -1.8650869235
 H         -0.7434026913        0.7345138898        1.7475672159
 C         -1.3766765854        1.3529507053        1.1224101347
 C         -0.8199499994        2.4504217989        0.4756661891
 C         -1.6399808630        3.2294587475       -0.3287046452
 C         -2.9783512704        2.9106727350       -0.4828697208
 C         -3.5283326220        1.8185103999        0.1621562918
 C         -2.7157233669        1.0317653355        0.9688952617
 N         -3.2661818037       -0.0879381668        1.6303706533
 S         -3.8845801664       -1.3124797121        0.6693009204
 O         -5.0193109843       -0.8079068743       -0.0598351730
 O         -4.1411087120       -2.4117705246        1.5722129103
 C         -2.5681003305       -1.7422193199       -0.4528330187
 C         -2.3937616014       -1.0063218234       -1.6074484027
 C         -1.3367707305       -1.3192547957       -2.4466622681
 C         -0.4787880994       -2.3569956466       -2.1183514773
 C         -0.6677794196       -3.0871181015       -0.9545847016
 C         -1.7179873239       -2.7738952402       -0.1077689748
 H         -1.9030235675       -3.3188148563        0.8043381315
 H         -0.0032913288       -3.8989753788       -0.7019248529
 H          0.3436952957       -2.5921309368       -2.7760338985
 H         -1.1761370537       -0.7403462483       -3.3410488102
 H         -3.0790563445       -0.2061741049       -1.8340050068
 H         -2.6371400035       -0.4925903630        2.3100028427
 H         -4.5648020435        1.5490943040        0.0390080115
 H         -3.6024553506        3.5211885388       -1.1178683133
 H         -1.2264191465        4.0723777290       -0.8570731720
 C          0.6519641146        2.7080795177        0.6721605270
 H          0.8500691266        2.7259607403        1.7572572247
 C          1.1063938305        4.0555788320        0.1313760775
 C          2.5362181314        4.2884800369       -0.2528730128
 C          1.4716768268        4.2664187087       -1.3062963936
 H          1.1952244761        5.2009572758       -1.7724356800
 H          1.4163535518        3.4162121689       -1.9674391880
 H          3.2140072934        3.4492996924       -0.1924575532
 H          2.9894223665        5.2340865533        0.0044096620
 H          0.6054202686        4.8790860603        0.6313485473
 O          2.7088898980        1.4616686177        2.1634361482
