  62
        -98.93352814
 C         -2.1048588959       -1.2455478021        0.0884315751
 C         -2.4461012565       -0.1644277568       -0.7610152133
 C         -3.8646511231        0.2236215440       -0.7494835858
 C         -4.7469431991       -0.4625325311       -0.0020527704
 C         -6.2254683746       -0.1995451781        0.0910026508
 C         -6.6004045551        0.8959813221        1.0985663400
 C         -6.2557598883        2.3221360353        0.6673748060
 H         -6.6629444422        2.5082695637       -0.3268943554
 H         -6.7640055582        2.9970238992        1.3589797512
 C         -4.7545018306        2.6430756835        0.6792006627
 H         -4.2260318509        1.8963311538        1.2762528169
 H         -4.5925242342        3.6100467460        1.1607020833
 C         -4.1099565898        2.7136638958       -0.7053436366
 H         -4.5377804437        3.5471784364       -1.2669165663
 H         -3.0414882673        2.9061224998       -0.5770472093
 C         -4.2625373312        1.4342659515       -1.5384374667
 H         -5.2870381774        1.3376354904       -1.8971799992
 H         -3.5939242058        1.5039230352       -2.3999919239
 H         -6.1132395722        0.6756160808        2.0511856612
 H         -7.6798832567        0.8379915127        1.2559944044
 H         -6.6146512387        0.0605686748       -0.8936820239
 H         -6.6880028891       -1.1353598645        0.4119805438
 O         -4.3829862615       -1.5219166891        0.7693305888
 C         -3.0597332089       -1.9190369819        0.8523361478
 O         -2.8588867820       -2.8750008582        1.6296200822
 H          1.2171823358       -0.3446038150       -1.4382986793
 C          1.1070572318        0.0207655686       -0.4348298837
 C          0.2320771359       -0.5603560431        0.4680219403
 C          0.1220828446        0.0195565596        1.7342529574
 C          0.8540976431        1.1355601702        2.0845101764
 C          1.7487404082        1.6908087737        1.1857052910
 C          1.8705322290        1.1245254605       -0.0743506573
 N          2.7942577960        1.6337577901       -1.0146590203
 S          4.0749964991        0.6222950580       -1.3890742416
 O          4.9937883436        1.4276798636       -2.1615239161
 O          3.5827873728       -0.5767312435       -2.0135059617
 C          4.7928090538        0.2331327917        0.1981211285
 C          5.8276585844        1.0139106128        0.6746314143
 C          6.3294739583        0.7630605615        1.9415585162
 C          5.7813630067       -0.2514985218        2.7116933113
 C          4.7402020158       -1.0243705955        2.2207198180
 C          4.2379975330       -0.7823871973        0.9518416074
 H          3.4305763970       -1.3651434456        0.5382996414
 H          4.3125667628       -1.8122818766        2.8197114444
 H          6.1676262893       -0.4427952477        3.7003718880
 H          7.1409152607        1.3603323482        2.3251783174
 H          6.2245631272        1.7899475197        0.0400503941
 H          3.1522955830        2.5480511473       -0.7750382536
 H          2.3358095216        2.5566065893        1.4532797122
 H          0.7380177300        1.5693969672        3.0659730788
 H         -0.5701654923       -0.4168829993        2.4421418626
 C         -0.6672063084       -1.7423945096        0.2103184329
 H         -0.6578934157       -2.3434712644        1.1342675217
 C         -0.3892272483       -2.7355924489       -0.9097287035
 C         -0.2066798054       -2.3912118162       -2.3556092370
 C          0.9265379906       -2.9955891292       -1.5794022355
 H          1.1831343448       -4.0247038423       -1.7863434189
 H          1.7814423818       -2.3792055765       -1.3523275748
 H         -0.7140813243       -3.0035251384       -3.0880870454
 H         -0.1652689495       -1.3489920173       -2.6294295716
 H         -0.9944088016       -3.6231871421       -0.7320120428
 O         -1.6293216703        0.4529626140       -1.4893174098
