  62
        -98.93527130
 C          1.7481492974       -0.5570586593        0.0441803723
 C          2.9216195787       -1.0220858234       -0.6009292594
 C          4.2187112089       -0.5555555776       -0.0745580163
 C          4.2216569765        0.3042168365        0.9604579137
 C          5.4029541215        0.9495755722        1.6346427014
 C          6.0064173976        2.0931880340        0.8034191716
 C          6.1658474669        1.7921249125       -0.6845536691
 H          5.1914049222        1.5365844151       -1.1048308628
 H          6.4983790822        2.7109438779       -1.1748631688
 C          7.1698821511        0.6926364844       -1.0227748704
 H          7.2479289347        0.6492965392       -2.1121884805
 H          8.1509582456        0.9708129978       -0.6312556833
 C          6.8235798511       -0.7091290320       -0.5162156633
 H          7.0400083163       -0.8080554147        0.5441741243
 H          7.4818223568       -1.4132766166       -1.0335806527
 C          5.3944372086       -1.1562964031       -0.8067567834
 H          5.3270388643       -2.2377411451       -0.6361002984
 H          5.1864721793       -1.0211958909       -1.8742650892
 H          6.9759460821        2.3553862594        1.2303109933
 H          5.3500102513        2.9618314244        0.8982745762
 H          5.0389077335        1.3614948960        2.5785844622
 H          6.1549172986        0.2016081469        1.8682046903
 O          3.0685499455        0.7532525817        1.5298254231
 C          1.8131436835        0.3485717545        1.1038683973
 O          0.8789179171        0.8609050589        1.7477992726
 O          2.8935136457       -1.8005735762       -1.5914940501
 C          0.4179468686       -1.0379085451       -0.5092358629
 C         -0.5034642626        0.1265122348       -0.7580424595
 C         -0.3666081576        0.8836563994       -1.9171459648
 C         -1.2058296361        1.9537565846       -2.1701906676
 C         -2.1981090996        2.2950156519       -1.2672505932
 C         -2.3292399081        1.5557122578       -0.1012430303
 C         -1.4968489577        0.4734411228        0.1442649929
 H         -1.6056051085       -0.0871884804        1.0597416321
 N         -3.3637679473        1.8858954500        0.8103868879
 S         -4.8703560580        1.3443348153        0.3163360745
 O         -5.2454693766        2.0551562532       -0.8789275340
 O         -5.7485187855        1.4899914345        1.4549639905
 C         -4.6130972548       -0.3822681145       -0.0531429769
 C         -4.7522371847       -1.3088984967        0.9607543168
 C         -4.4490900690       -2.6359969245        0.7025081060
 C         -4.0002744083       -3.0085099487       -0.5555386020
 C         -3.8635577593       -2.0652700885       -1.5627274458
 C         -4.1700109356       -0.7375296078       -1.3115686176
 H         -4.0759540143        0.0251186063       -2.0672948519
 H         -3.5102009222       -2.3572074499       -2.5386956932
 H         -3.7543230151       -4.0403485614       -0.7526558056
 H         -4.5561241779       -3.3730719964        1.4822697510
 H         -5.1035344380       -0.9766837386        1.9247188735
 H         -3.1777381659        1.5444205547        1.7435771838
 H         -2.8755894493        3.1130590320       -1.4510650992
 H         -1.0881979063        2.5267140162       -3.0774960723
 H          0.4099733364        0.6223139925       -2.6227347157
 H          0.6782928957       -1.4811366365       -1.4837329143
 C         -0.2541373988       -2.1378464337        0.3001782150
 C          0.5572374503       -3.2361093141        0.9168573058
 C         -0.1489971107       -2.2451709779        1.7906715287
 H         -1.0201125312       -2.5755260184        2.3378655211
 H          0.4387860816       -1.5071920603        2.3138041622
 H          0.1797470265       -4.2461410159        0.8710244596
 H          1.6320027433       -3.1653495455        0.8330586631
 H         -1.2066502167       -2.4244300730       -0.1360498134
