  62
        -98.93555104
 C          0.9775568710        1.4919524203        0.3590191995
 C          1.6223145110        0.5104564007        1.1486215999
 C          2.7787449606       -0.1814999001        0.5514941199
 C          3.1348734401        0.1189337988       -0.7097852905
 C          4.2397713095       -0.4702331722       -1.5502874705
 C          5.5908421097       -0.7168177121       -0.8623424510
 C          5.8961612394       -2.1979444220       -0.6303615700
 H          5.5517454188       -2.7630532725       -1.4991538094
 H          6.9791547794       -2.3253367323       -0.5668803004
 C          5.2864546198       -2.7989232408        0.6347407007
 H          5.4636796794       -3.8766265609        0.6069239215
 H          5.8084308603       -2.4055358503        1.5097665202
 C          3.7874305999       -2.5543959002        0.8181357812
 H          3.4020925500       -3.3264276996        1.4880370120
 H          3.2599627195       -2.6682388208       -0.1294777584
 C          3.4603455506       -1.1873245697        1.4382864104
 H          4.3675764210       -0.7391406796        1.8532937696
 H          2.7750408110       -1.3216103688        2.2810416008
 H          5.6356012503       -0.1675743614        0.0766257286
 H          6.3695775596       -0.3121376128       -1.5109233616
 H          3.8693525590       -1.4008878524       -1.9895270697
 H          4.3680366993        0.2311535172       -2.3783294311
 O          2.4584162000        1.0402772885       -1.4523362709
 C          1.3598767404        1.7288102792       -0.9613658509
 O          0.8385912503        2.4998746987       -1.7882034112
 O          1.2350393915        0.2084749417        2.3103721003
 C         -0.2483474685        2.1700544811        0.9417880595
 C         -1.4196244590        2.0274491508        0.0001542502
 C         -2.3192629288        3.0452474808       -0.2875704602
 C         -3.3845881193        2.8135531105       -1.1415771995
 C         -3.5864151599        1.5703508101       -1.7118908085
 C         -2.6879513701        0.5456124501       -1.4335215881
 C         -1.6236190397        0.7828831904       -0.5814876688
 H         -0.9129635098       -0.0076965297       -0.3982430985
 N         -2.8385375408       -0.7255999803       -2.0017840371
 S         -2.2389668709       -2.0855270799       -1.2485737264
 O         -0.8015720809       -2.1388088905       -1.3588100570
 O         -2.9574405915       -3.1765709802       -1.8730395952
 C         -2.7395199700       -1.9387897185        0.4577381138
 C         -1.7981450095       -1.8079880180        1.4575245632
 C         -2.2259310689       -1.6543793869        2.7668796433
 C         -3.5817894988       -1.6390499063        3.0532840039
 C         -4.5167514093       -1.7842337568        2.0391347245
 C         -4.0943428299       -1.9329007479        0.7286600344
 H         -4.7911591203       -2.0560991283       -0.0842647452
 H         -5.5705823892       -1.7770936863        2.2657826849
 H         -3.9097758282       -1.5147274554        4.0731939540
 H         -1.4912144485       -1.5352448765        3.5473796529
 H         -0.7485365697       -1.8156277685        1.2068158428
 H         -3.7018176411       -0.8906515704       -2.4957325366
 H         -4.4162557103        1.3952761099       -2.3789115780
 H         -4.0713962792        3.6157481805       -1.3649639698
 H         -2.1786782883        4.0251712111        0.1376464990
 H         -0.4803295483        1.5698128519        1.8390809901
 C         -0.0229981579        3.5946772414        1.4274887883
 C          1.3563717924        4.1246623412        1.6785237173
 C          0.5430921120        4.6622741006        0.5413900873
 H          0.1455066224        5.6632087107        0.6257783267
 H          0.8151584915        4.3795395797       -0.4630784626
 H          1.5156612530        4.7510871218        2.5435642068
 H          2.1916503121        3.4796631607        1.4456094074
 H         -0.7847424675        3.9079208922        2.1346380285
