  62
        -98.94871714
 C          0.9611227324        1.2736575954        0.0352318571
 C          1.9438965810        1.0298346714        1.0217590647
 C          2.6540154856       -0.2489008363        0.9141289235
 C          2.3204878612       -1.1160433139       -0.0590264332
 C          2.9273545165       -2.4765831221       -0.2737399407
 C          4.2353729496       -2.4605172873       -1.0767277430
 C          5.4520260536       -1.9168611394       -0.3269507258
 H          5.5503356124       -2.4349101696        0.6276219060
 H          6.3327118106       -2.1631344637       -0.9234176239
 C          5.4243524520       -0.4003517165       -0.0909618589
 H          4.6912499225        0.0593264468       -0.7575703136
 H          6.3982908944        0.0253966374       -0.3424670711
 C          5.1089297267        0.0113206516        1.3471278608
 H          5.9055634246       -0.3319567679        2.0109978967
 H          5.0797506865        1.1029624637        1.3932016468
 C          3.7701778735       -0.5195982306        1.8771202458
 H          3.8433779408       -1.5870102582        2.0864749075
 H          3.5370902077        0.0014061432        2.8094295083
 H          4.0784806350       -1.8778895293       -1.9871135874
 H          4.4489322103       -3.4904264733       -1.3717793214
 H          3.0949204380       -2.9574075021        0.6908531507
 H          2.1903765417       -3.0617247320       -0.8273755800
 O          1.3511530357       -0.8551342599       -0.9750489128
 C          0.6525126018        0.3434139435       -0.9576032012
 O         -0.1999882538        0.4556737582       -1.8574016945
 H         -1.0613732920        0.5074184023        1.2776902537
 C         -1.7649150500        1.1913067161        0.8260986187
 C         -1.3051385821        2.3163175353        0.1552363185
 C         -2.2400369988        3.1855326868       -0.3959993450
 C         -3.5940871021        2.9235368664       -0.2853508872
 C         -4.0456238255        1.7859765094        0.3584380548
 C         -3.1187605046        0.9119454179        0.9147758894
 N         -3.5328599039       -0.2583168485        1.5723186147
 S         -2.6602323300       -1.6688848677        1.4114191692
 O         -3.5859109867       -2.7021441655        1.8328824101
 O         -1.4337355769       -1.5964844450        2.1681663383
 C         -2.2997229369       -1.8992906939       -0.3208431947
 C         -3.1714404974       -1.4415122691       -1.2873168401
 C         -2.8864667342       -1.6944648522       -2.6189083124
 C         -1.7506977984       -2.4091953568       -2.9608623044
 C         -0.8922221160       -2.8734613134       -1.9784893465
 C         -1.1663842621       -2.6149106863       -0.6461514250
 H         -0.5136688685       -2.9388319915        0.1500486922
 H         -0.0039908154       -3.4232564948       -2.2467382692
 H         -1.5275835410       -2.5990962160       -3.9989186939
 H         -3.5488300508       -1.3259293882       -3.3855714887
 H         -4.0501057250       -0.8846452328       -1.0061909476
 H         -4.5266652766       -0.4355063813        1.5535944607
 H         -5.1014946970        1.5748169767        0.4338209497
 H         -4.3080285509        3.6084670531       -0.7165027931
 H         -1.9057207587        4.0694885559       -0.9140148135
 C          0.1802899573        2.5715012364        0.0764074584
 H          0.4914813421        3.0719882963        1.0066771447
 C          0.5641328238        3.4503004786       -1.0989643635
 C          0.6350914921        4.9401241397       -0.9502992586
 C          1.8947424087        4.1392891852       -1.0785097941
 H          2.4590034351        4.2017134724       -1.9968664752
 H          2.5069691561        4.0024039064       -0.1988335709
 H          0.3359179167        5.5566463007       -1.7846142519
 H          0.4022060913        5.3595575613        0.0169236860
 H          0.2257709862        3.0434588364       -2.0453760387
 O          2.2112698865        1.8404908844        1.9513750352
