  62
        -98.94024185
 C         -2.4787337720       -1.0999803085        0.0716420391
 C         -2.7060920319       -0.0224068980       -0.8177391181
 C         -4.1098550877        0.3827660909       -0.9828188099
 C         -5.0720195345       -0.2855213834       -0.3206847601
 C         -6.5331498761        0.0556981859       -0.3555777861
 C         -6.9024576385        1.0298848804        0.7719986932
 C         -5.9750940742        2.2412534010        0.8698773826
 H         -6.3492778286        2.8727309652        1.6786231932
 H         -4.9773127519        1.9045010398        1.1606106042
 C         -5.8728231387        3.0682101716       -0.4193000614
 H         -6.7124347780        2.8366046587       -1.0755896524
 H         -5.9442835557        4.1271435014       -0.1624451968
 C         -4.5632459562        2.8842804510       -1.1886176144
 H         -4.5035655114        3.6663076973       -1.9502455467
 H         -3.7162592205        3.0220393571       -0.5115321610
 C         -4.3923572041        1.5373155843       -1.9024428133
 H         -3.5197569499        1.6168217509       -2.5574409544
 H         -5.2691139357        1.3335823884       -2.5204977974
 H         -7.9287119095        1.3666191956        0.6148095529
 H         -6.8629214018        0.4909269349        1.7214139015
 H         -6.7756073476        0.4928442403       -1.3220950585
 H         -7.1040991133       -0.8656760718       -0.2294563472
 O         -4.8146631004       -1.3311480618        0.5068616645
 C         -3.5161506145       -1.7556237589        0.7336645597
 O         -3.4169981814       -2.7076325663        1.5345801702
 O         -1.7874819473        0.5721063138       -1.4401681608
 C         -1.0634213453       -1.5864232616        0.3201236871
 C         -0.1909027784       -0.4567422915        0.8116541030
 C         -0.6657452053        0.3770238879        1.8214356880
 C          0.1105173307        1.4099803725        2.3089290137
 C          1.3859236309        1.6229850813        1.8155387418
 C          1.8715743905        0.7944395245        0.8118778522
 C          1.0838171295       -0.2358808432        0.3160148351
 H          1.4885413760       -0.8616966286       -0.4614302304
 N          3.1541905330        0.9933507416        0.2756078006
 S          4.0559945248       -0.3639068051       -0.1672934587
 O          3.6778221654       -0.7685273318       -1.4975660512
 O          3.9620994223       -1.3760802570        0.8606537777
 C          5.6965845111        0.3358474297       -0.1974119258
 C          6.1027620055        1.0288537657       -1.3222521787
 C          7.3661779750        1.5979871437       -1.3383495943
 C          8.1976352893        1.4662420614       -0.2359176266
 C          7.7769188561        0.7665825811        0.8850788781
 C          6.5140771765        0.1957096628        0.9082510930
 H          6.1483435334       -0.3649776398        1.7534378269
 H          8.4268433380        0.6630094672        1.7390114237
 H          9.1809660908        1.9090743274       -0.2518681924
 H          7.6977064759        2.1402431077       -2.2091379038
 H          5.4258382720        1.0969301019       -2.1579606148
 H          3.7064339743        1.6495973316        0.8105816570
 H          1.9950338999        2.4272470753        2.1994004250
 H         -0.2760554830        2.0505418258        3.0876176656
 H         -1.6580045536        0.2030876243        2.2166316994
 H         -1.1327680275       -2.3339092416        1.1252232363
 C         -0.5224771988       -2.2637404357       -0.9220289797
 C          0.5065806151       -3.3464107842       -0.8061583324
 C         -0.8984566767       -3.6866027415       -1.2009086657
 H         -1.0917414108       -3.9787038428       -2.2221253435
 H         -1.5280253796       -4.1826404795       -0.4763066104
 H          1.2844690341       -3.3984052741       -1.5538004051
 H          0.8391250315       -3.6165232853        0.1852698289
 H         -0.4559752774       -1.5881989965       -1.7679800260
