  62
        -98.93561740
 C          1.1640543379        1.7254471816       -0.2933546615
 C          1.3703920651        0.3387843363       -0.4801894084
 C          2.5797044337       -0.2430247661        0.1453862617
 C          3.3993414210        0.5538995533        0.8538533184
 C          4.6904444786        0.1940036127        1.5401037667
 C          5.8580147230        0.0208908748        0.5550888173
 C          5.5243859529       -0.7739341923       -0.7046767118
 H          6.3954298520       -0.7306650481       -1.3640674578
 H          4.6990578189       -0.2866119128       -1.2268469442
 C          5.1836355364       -2.2444153417       -0.4754285624
 H          6.0283351254       -2.7350534869        0.0134072351
 H          5.0570497402       -2.7040020043       -1.4589268610
 C          3.9202474671       -2.5179234374        0.3433900142
 H          4.1016807519       -2.3705038210        1.4043961707
 H          3.6738162831       -3.5756081291        0.2150868517
 C          2.6914508763       -1.7287135069       -0.0968419767
 H          1.8058096341       -2.1672575954        0.3775568371
 H          2.5398056285       -1.8706372312       -1.1725836557
 H          6.6857691568       -0.4569456349        1.0819528757
 H          6.1866493031        1.0154782314        0.2433692953
 H          4.5567513413       -0.6989522360        2.1432776592
 H          4.9259438172        1.0193084064        2.2157599543
 O          3.1577041458        1.8880984309        1.0093257767
 C          2.0532843968        2.4997750386        0.4557218494
 O          1.9731532860        3.7236970181        0.6879977053
 O          0.6021626156       -0.4056304388       -1.1404578185
 C         -0.0305825211        2.4720261616       -0.8661305149
 C         -1.2100511359        2.3481169053        0.0627279544
 C         -1.7773017693        3.4802381963        0.6369010685
 C         -2.8356485308        3.3677765510        1.5204961980
 C         -3.3623917465        2.1264087674        1.8275682688
 C         -2.8040314383        0.9883656880        1.2573738949
 C         -1.7250909809        1.1013241303        0.3934801977
 H         -1.2843653736        0.2118164427       -0.0289558393
 N         -3.3143342480       -0.2898095040        1.5395342186
 S         -3.6353049353       -1.3021788266        0.2365054436
 O         -3.9197997075       -0.5363613732       -0.9542725716
 O         -4.7063650457       -2.1598282300        0.7053659062
 C         -2.1818342004       -2.3019739189        0.0271348810
 C         -1.6519732529       -2.4814506604       -1.2331498963
 C         -0.5709580015       -3.3336937963       -1.3881666085
 C         -0.0427055813       -3.9851126361       -0.2857826202
 C         -0.5837993508       -3.7886192362        0.9765695979
 C         -1.6673009253       -2.9417824106        1.1375111832
 H         -2.1198572143       -2.7675352411        2.0998398428
 H         -0.1629284569       -4.2915430104        1.8329112248
 H          0.7999221625       -4.6475767879       -0.4099751851
 H         -0.1410132894       -3.4761671953       -2.3661754930
 H         -2.0829405027       -1.9438765389       -2.0621544806
 H         -4.0862888299       -0.2947027351        2.1915425642
 H         -4.1978296999        2.0354646606        2.5057011917
 H         -3.2613686915        4.2545109717        1.9653797532
 H         -1.3696881676        4.4520268988        0.3986776004
 H          0.2744694461        3.5307057870       -0.8701799162
 C         -0.3353371051        2.0936336417       -2.3090746073
 C         -1.5611812720        1.3659213098       -2.7644613395
 C         -1.4092644330        2.8265205203       -3.0585425301
 H         -1.2175245562        3.1385695289       -4.0742261233
 H         -2.0236397240        3.5128722239       -2.4945784745
 H         -1.4412690238        0.6639872044       -3.5766823556
 H         -2.3009500600        1.0576553135       -2.0419811719
 H          0.5732813555        1.8767830373       -2.8626524474
