  62
        -98.94024056
 C          1.0480603108        1.6496489410       -0.2327537016
 C          1.1725203442        0.2523550187       -0.4185891941
 C          2.3004134565       -0.4109167389        0.2679420821
 C          3.1282275242        0.3234189194        1.0317358712
 C          4.3540828884       -0.1440878634        1.7675205680
 C          5.5588952862       -0.3601705416        0.8308879230
 C          5.2252925055       -0.9599984410       -0.5341426104
 H          4.4533339106       -0.3538595753       -1.0118879195
 H          6.1219803801       -0.8908016466       -1.1556288665
 C          4.7845190358       -2.4217908685       -0.5154673468
 H          5.6170268574       -3.0393458987       -0.1697703974
 H          4.5596724962       -2.7109935490       -1.5449646201
 C          3.5677890971       -2.7389901174        0.3529899558
 H          3.8268694328       -2.6783100457        1.4067473834
 H          3.2919567633       -3.7804330981        0.1614352606
 C          2.3229221155       -1.9052135987        0.0591022576
 H          2.0260149862       -2.0608267668       -0.9838903347
 H          1.4937679241       -2.2949640842        0.6639435434
 H          6.0220705395        0.6136015438        0.6557612154
 H          6.2868713721       -0.9924693944        1.3413280783
 H          4.6083038043        0.6360291935        2.4883836516
 H          4.1207408635       -1.0456370418        2.3273761327
 O          2.9720453272        1.6679670748        1.1875723791
 C          1.9369448499        2.3524145876        0.5850426132
 O          1.9168807856        3.5750792021        0.8389201455
 H         -1.4342700261        0.2584701304       -0.1938127734
 C         -1.8917855526        1.1402422878        0.2215916642
 C         -1.3208545258        2.3822146864       -0.0140243753
 C         -1.9224698709        3.5087577302        0.5342181689
 C         -3.0626772567        3.3879959343        1.3091996041
 C         -3.6119288421        2.1445159794        1.5666731995
 C         -3.0151861678        1.0126815107        1.0230563882
 N         -3.5389028176       -0.2688792447        1.2484219517
 S         -2.4993543631       -1.5721164161        1.4177285355
 O         -3.2779296335       -2.5568717345        2.1451573957
 O         -1.2548737208       -1.1875143446        2.0456354034
 C         -2.2236202570       -2.1940950709       -0.2270369104
 C         -1.2320753549       -3.1408783486       -0.3807546062
 C         -0.9976427148       -3.6736402377       -1.6369690597
 C         -1.7616456176       -3.2550832560       -2.7144033654
 C         -2.7605164602       -2.3106337206       -2.5417929150
 C         -2.9991887246       -1.7730226513       -1.2868369492
 H         -3.7595317674       -1.0262441954       -1.1274327417
 H         -3.3508427201       -1.9830503747       -3.3827856980
 H         -1.5731333483       -3.6640812463       -3.6947450332
 H         -0.2165623257       -4.4050422587       -1.7709360193
 H         -0.6565912536       -3.4324615011        0.4839097463
 H         -4.3088385629       -0.3168419585        1.8994042597
 H         -4.4903856774        2.0483041094        2.1865476693
 H         -3.5210793796        4.2700813410        1.7301541601
 H         -1.4805218345        4.4799381552        0.3657065157
 C         -0.0644617516        2.4887020590       -0.8445806606
 H          0.2854310659        3.5288290772       -0.7918424133
 C         -0.3520788030        2.1504961404       -2.2948538123
 C         -1.0169196979        3.1763242430       -3.1606160182
 C          0.4264099270        2.8345151412       -3.3761820079
 H          0.6998342674        2.2653150856       -4.2517268197
 H          1.1725264892        3.5558062579       -3.0748104641
 H         -1.2490450472        4.1325143459       -2.7164964757
 H         -1.7382034675        2.8434385845       -3.8907020576
 H         -0.6120591801        1.1116783319       -2.4478226730
 O          0.3998767822       -0.4417041034       -1.1323642630
