  62
        -98.94468279
 C          2.0210664750        0.7508600902        0.5618881712
 C          1.9501770073        0.0455247693       -0.6636611154
 C          1.9821731943       -1.4171149923       -0.5589650029
 C          2.0189442880       -2.0002822409        0.6524143126
 C          2.0027683786       -3.4805695399        0.9238178163
 C          3.3795401546       -4.1527328911        0.8280132074
 C          3.9320834842       -4.3058625500       -0.5895792804
 H          4.7888122439       -4.9797051500       -0.5278988948
 H          3.1826005878       -4.7865616125       -1.2188675437
 C          4.3840090173       -2.9901012550       -1.2381893350
 H          5.3607196161       -3.1312340705       -1.7061720995
 H          4.5044595669       -2.2263456294       -0.4665397055
 C          3.4380951690       -2.4572664417       -2.3144777591
 H          3.4063098793       -3.1553151034       -3.1538515626
 H          3.8344846018       -1.5068092317       -2.6801083168
 C          2.0034246562       -2.2141037088       -1.8276535246
 H          1.4699387069       -1.6351477611       -2.5856048987
 H          1.4836174684       -3.1619304012       -1.6879147075
 H          3.2860133116       -5.1479735810        1.2686034760
 H          4.0867816320       -3.5843980045        1.4363451214
 H          1.3066003678       -3.9660245060        0.2388385421
 H          1.6269915281       -3.6032102932        1.9422179425
 O          2.0572559317       -1.2863511014        1.8105122682
 C          2.0607957016        0.0989693882        1.7924699102
 O          2.1032557864        0.6283119552        2.9238290730
 O          1.8659929948        0.6081363645       -1.7869832747
 C          1.9385662727        2.2668803178        0.5625779466
 C          0.6454825751        2.6853118198       -0.0965400877
 C          0.5478101343        3.7257801139       -1.0109256280
 C         -0.6670740909        4.0198668200       -1.6064572632
 C         -1.7983563486        3.2799522338       -1.3170363584
 C         -1.7143195734        2.2498475130       -0.3862322466
 C         -0.5053138714        1.9792029173        0.2303179758
 H         -0.4523667898        1.1763378965        0.9526112946
 N         -2.8450058115        1.4851431927       -0.0458382722
 S         -2.6116231874       -0.1445295251        0.3367011244
 O         -2.2338143531       -0.2458880769        1.7254872063
 O         -1.7273314784       -0.7707329967       -0.6197285612
 C         -4.2765195653       -0.7508842870        0.1288648531
 C         -4.6270439902       -1.3854416803       -1.0477039572
 C         -5.9331690537       -1.8201113471       -1.2115845147
 C         -6.8619215613       -1.6106514785       -0.2033515685
 C         -6.4950263866       -0.9728178454        0.9725485753
 C         -5.1906443342       -0.5371352846        1.1433782066
 H         -4.8550490496       -0.0455478738        2.0416047887
 H         -7.2187620991       -0.8141489563        1.7555349319
 H         -7.8775008408       -1.9493083397       -0.3336299850
 H         -6.2199883351       -2.3192674293       -2.1230428299
 H         -3.8680805471       -1.5315353673       -1.7996488797
 H         -3.6050842613        1.6015991988       -0.7027506562
 H         -2.7376203863        3.4933696359       -1.8041234260
 H         -0.7285083849        4.8255469550       -2.3222556993
 H          1.4250850753        4.2961164126       -1.2690326582
 H          1.9015403972        2.5710762936        1.6195418743
 C          3.1690126995        2.8713512805       -0.0808087071
 C          3.6656335786        4.2173047951        0.3519447713
 C          4.4256984971        2.9818417034        0.7273299467
 H          5.3699221910        2.7864873306        0.2417587303
 H          4.3837605270        2.6438973723        1.7528830225
 H          4.0933424325        4.8726070812       -0.3917246882
 H          3.1153897912        4.7270027701        1.1283614223
 H          3.2664989815        2.5969852681       -1.1248976294
