  62
        -98.94422356
 C         -1.8244009396       -1.1145994108       -0.1184247698
 C         -2.2872406996        0.0187812588       -0.8291228305
 C         -3.7477277996        0.1773846688       -0.8964791505
 C         -4.5398664396       -0.7409855408       -0.3138619099
 C         -6.0379308796       -0.6699935807       -0.2582339999
 C         -6.5125041195        0.0564613901        1.0082305397
 C         -5.8091366494        1.3910513603        1.2557921187
 H         -6.2451521794        1.8260328209        2.1577323985
 H         -4.7534414394        1.2051658904        1.4664130688
 C         -5.9233721095        2.3932513595        0.0986969281
 H         -6.1665810394        3.3757619498        0.5086341974
 H         -6.7427461595        2.1059902591       -0.5612419217
 C         -4.6449096895        2.5588319089       -0.7251918521
 H         -4.7646752095        3.4359584785       -1.3668953027
 H         -3.8003647395        2.7545643393       -0.0592649023
 C         -4.2778500396        1.3764779983       -1.6308070413
 H         -5.1367197996        1.1041228779       -2.2477367011
 H         -3.4693446596        1.7034156278       -2.2915701416
 H         -6.3288821995       -0.5916892693        1.8681960501
 H         -7.5888587095        0.2195709301        0.9294766296
 H         -6.4050379196       -0.1556019413       -1.1441456902
 H         -6.4307566196       -1.6880663707       -0.2511430492
 O         -4.0571444096       -1.8264087504        0.3432039908
 C         -2.6933766496       -2.0345553204        0.4682903409
 O         -2.3848457996       -3.0551001599        1.1159902916
 H          1.7744163604        0.2338606486       -0.8376601408
 C          1.3743011805        0.5209754493        0.1199891490
 C          0.3163420605       -0.1737457903        0.6831835295
 C         -0.1807233495        0.2475424405        1.9151332293
 C          0.3518984306        1.3492054209        2.5539085285
 C          1.4001741506        2.0498579105        1.9826674480
 C          1.9078663705        1.6345199397        0.7580117083
 N          2.9608887305        2.3346042692        0.1577855377
 S          4.0833863005        1.5751577986       -0.8068719418
 O          5.2290348605        2.4603983285       -0.7820602824
 O          3.5389511904        1.2967397277       -2.1119356016
 C          4.4895014805        0.0446270591        0.0178459992
 C          4.6151245904       -1.1043721714       -0.7351647000
 C          4.9524657004       -2.2909779510       -0.1038946893
 C          5.1572654204       -2.3075513501        1.2666302707
 C          5.0328760105       -1.1437568396        2.0099413100
 C          4.6993461505        0.0456874400        1.3827341592
 H          4.6018563206        0.9634335904        1.9389678486
 H          5.1938205805       -1.1597363089        3.0758416900
 H          5.4157183504       -3.2323115198        1.7579480613
 H          5.0504970103       -3.1957307814       -0.6822555987
 H          4.4411600203       -1.0462061821       -1.7974946601
 H          3.3572458306        3.0846233296        0.7030509972
 H          1.8123637907        2.9183411308        2.4733976574
 H         -0.0495822193        1.6670972316        3.5043458983
 H         -1.0027584695       -0.2994101692        2.3573441497
 C         -0.3322591296       -1.3644403707        0.0221130703
 H         -0.2316732596       -2.2274527903        0.6961185709
 C          0.2639690303       -1.7264452717       -1.3210044094
 C          1.4889502903       -2.5853905017       -1.3931104189
 C          0.1578038603       -3.1434474720       -1.7959505285
 H         -0.0326742698       -3.3237031727       -2.8433458284
 H         -0.3244536397       -3.8505176615       -1.1365773180
 H          1.9212627903       -2.9191822211       -0.4620480887
 H          2.2117128203       -2.3801440723       -2.1678856391
 H          0.1451199303       -0.9416403721       -2.0597092800
 O         -1.5254958296        0.8566247284       -1.3791047811
