  62
        -98.93721481
 C          1.1730896894        0.9539296097        0.5908529798
 C          1.9071540493        0.5986421192       -0.5644348901
 C          2.9140916993       -0.4734572407       -0.4117581596
 C          3.0347984894       -1.0918341301        0.7768023807
 C          4.0058084195       -2.1709370699        1.1768354311
 C          5.4292851995       -1.6367628097        1.4034211707
 C          5.9255367694       -0.6583478303        0.3422538902
 H          5.2433008094        0.1920365697        0.2919354698
 H          6.8961019394       -0.2773875601        0.6705193799
 C          6.1030935893       -1.2488094310       -1.0544035995
 H          6.8074714493       -2.0820637709       -1.0047134891
 H          6.5503078992       -0.4724509213       -1.6802606299
 C          4.8248028692       -1.7330049814       -1.7426281892
 H          4.5104217293       -2.6993785112       -1.3570227786
 H          5.0611151892       -1.8845389619       -2.8000152791
 C          3.6626737292       -0.7461042214       -1.6943638096
 H          4.0042300292        0.2285032485       -2.0618138801
 H          2.8984829092       -1.0717598717       -2.4111769793
 H          6.1097749995       -2.4877003697        1.4647090111
 H          5.4464099895       -1.1209745592        2.3666994705
 H          4.0020106494       -2.9675929803        0.4385442815
 H          3.6368376796       -2.5902549394        2.1157921214
 O          2.2540472895       -0.7636218396        1.8463540405
 C          1.3011457495        0.2326535904        1.7788532201
 O          0.6333652395        0.3781455109        2.8237577001
 O          1.7499280192        1.1451045486       -1.6873155604
 C          0.0951048293        2.0231044497        0.5575673493
 C         -0.8249088008        1.7848727291       -0.6157125405
 C         -1.2452987109        2.7719215086       -1.4967833010
 C         -2.1142922709        2.4599853081       -2.5288255208
 C         -2.5958212509        1.1742715380       -2.6936541001
 C         -2.1777314408        0.1784096884       -1.8174874696
 C         -1.3024633007        0.4928206490       -0.7927843298
 H         -0.9566118307       -0.2923668507       -0.1379522794
 N         -2.6281543408       -1.1432008816       -1.9491785289
 S         -2.8188309607       -2.1041438310       -0.5981431984
 O         -1.5375374606       -2.5360382807       -0.0960708883
 O         -3.7092245107       -3.1576285212       -1.0377818678
 C         -3.6569127906       -1.0713417404        0.5915059312
 C         -4.9572437006       -0.7013676606        0.3045850611
 C         -5.6301726806        0.1301955099        1.1838154807
 C         -4.9928017105        0.5812511305        2.3300993104
 C         -3.6906421105        0.1966807706        2.6075472805
 C         -3.0131902205       -0.6385028198        1.7323878209
 H         -1.9976972305       -0.9486149697        1.9265925010
 H         -3.1874595804        0.5434116011        3.4963545003
 H         -5.5128813505        1.2335898008        3.0135960101
 H         -6.6452829106        0.4257079197        0.9734116006
 H         -5.4224168907       -1.0825171710       -0.5898456387
 H         -3.3546261108       -1.2880702820       -2.6339919287
 H         -3.2733099010        0.9359176975       -3.4990068299
 H         -2.4251708910        3.2334284277       -3.2145722611
 H         -0.8775061909        3.7792396487       -1.3924163115
 H         -0.4971127706        1.8451435101        1.4716363894
 C          0.6111061693        3.4516138098        0.6521209785
 C          1.9739787193        3.7508915501        1.2002063683
 C          1.6837281492        3.9786571293       -0.2513558618
 H          1.6032299292        4.9973795391       -0.6019088223
 H          2.1010899992        3.2965109490       -0.9743252015
 H          2.0897633494        4.6084240504        1.8462581978
 H          2.5998018094        2.9125040002        1.4712565586
 H         -0.1746814607        4.1474001999        0.9294651482
