  62
        -98.93846664
 C          1.5304046244        1.5500236125        0.3404391104
 C          1.5297573627        0.4508869784       -0.5510245800
 C          2.5002374256       -0.6153170106       -0.2561212240
 C          3.2879098802       -0.5241048957        0.8300460170
 C          4.2886151696       -1.5438892223        1.3049939612
 C          5.5062847522       -1.7770773910        0.3894536351
 C          5.3452114483       -2.9437107367       -0.5931901874
 H          6.2940061178       -3.4801335522       -0.6586424118
 H          4.6165947478       -3.6469984784       -0.1880366735
 C          4.9491387244       -2.5639703442       -2.0234760191
 H          5.8296147476       -2.1873586113       -2.5492127903
 H          4.6273314737       -3.4742862381       -2.5341193282
 C          3.8517974760       -1.5076279661       -2.1558847006
 H          3.5317658521       -1.4782091702       -3.1994562221
 H          4.2642624902       -0.5207580255       -1.9323447667
 C          2.6264735027       -1.7353411758       -1.2489196520
 H          1.7145516128       -1.7306981007       -1.8497673210
 H          2.7008875415       -2.6969608014       -0.7427821741
 H          5.7414203170       -0.8573006136       -0.1456018430
 H          6.3538293854       -1.9964985424        1.0406705855
 H          4.6367503634       -1.1795884513        2.2735169205
 H          3.7742687407       -2.4931661103        1.4703552353
 O          3.2343966730        0.5368784725        1.6799783001
 C          2.3745814520        1.5957782033        1.4541835912
 O          2.4492077775        2.5061237526        2.3023573518
 H         -1.2838599821        1.7297546516       -1.5751064390
 C         -1.6236248396        1.7173668996       -0.5522071766
 C         -0.8146884214        2.2267808903        0.4509095747
 C         -1.2690737484        2.1731440646        1.7656048652
 C         -2.5027682493        1.6250996670        2.0652247837
 C         -3.2954953616        1.0895354867        1.0644756137
 C         -2.8406584343        1.1242954246       -0.2466573082
 N         -3.5994318058        0.5095645373       -1.2598389457
 S         -4.1446583876       -1.0387178583       -0.9265059475
 O         -4.1597438017       -1.7279363521       -2.1984906942
 O         -5.4185865191       -0.9567681064       -0.2534055270
 C         -2.9475472572       -1.7776578734        0.1778904121
 C         -3.4032209231       -2.3942077092        1.3262340949
 C         -2.4878836363       -2.9702121695        2.1918988614
 C         -1.1340526278       -2.9127546709        1.9002511312
 C         -0.6921729814       -2.2906204681        0.7433476550
 C         -1.6030271744       -1.7216690998       -0.1323664789
 H         -1.2614235379       -1.2263692554       -1.0278676787
 H          0.3608645637       -2.2285028550        0.5174633718
 H         -0.4174745932       -3.3507275747        2.5771807334
 H         -2.8309849442       -3.4547181807        3.0918068508
 H         -4.4634519552       -2.4023288864        1.5210747893
 H         -3.1488206443        0.5374912672       -2.1637483915
 H         -4.2498130892        0.6359770746        1.2796582500
 H         -2.8454694532        1.5995510382        3.0882762583
 H         -0.6327208431        2.5528810893        2.5527001175
 C          0.5797732269        2.7253867002        0.1632311239
 H          0.8516266856        3.4524940003        0.9390772264
 C          0.7302402385        3.3811014491       -1.1936018548
 C          0.1125797182        4.7260818291       -1.4268965776
 C          1.6018671982        4.5917159454       -1.3290475038
 H          2.1905993817        4.7043806610       -2.2272346557
 H          2.0914467586        4.9585010359       -0.4386311339
 H         -0.3231185742        4.9348668109       -2.3920423957
 H         -0.4107216751        5.1829110072       -0.6005130274
 H          0.7372228005        2.6780889272       -2.0168574242
 O          0.7667877445        0.3440732150       -1.5471811262
