  62
        -98.93440861
 C         -1.8603237194       -1.5776023741        0.0055532813
 C         -2.1306499902       -0.5292819045       -0.9075172576
 C         -3.4856007968        0.0490264866       -0.8466362792
 C         -4.3690892130       -0.4216088450        0.0506326862
 C         -5.7496879801        0.1208320806        0.2881279622
 C         -5.6711837224        1.4183781733        1.1177845953
 C         -6.1281005400        2.6730346521        0.3727407591
 H         -7.2188674082        2.6768674007        0.3201613722
 H         -5.8244856876        3.5359514927        0.9694412539
 C         -5.5905649711        2.8379741386       -1.0521187477
 H         -6.1678094917        2.2144208634       -1.7364664955
 H         -5.7765352538        3.8739410396       -1.3436205983
 C         -4.1000426713        2.5314695069       -1.2473443585
 H         -3.5572087080        2.6518557140       -0.3092283487
 H         -3.6918752098        3.2645848557       -1.9462971262
 C         -3.8046487365        1.1379977088       -1.8337917481
 H         -4.6391335336        0.8242278891       -2.4668021417
 H         -2.9175710152        1.2084995730       -2.4702403583
 H         -6.2820685321        1.3136653945        2.0156980691
 H         -4.6402377195        1.5481468059        1.4544244524
 H         -6.2425733360        0.3041802490       -0.6640662286
 H         -6.3088212249       -0.6423356320        0.8298724578
 O         -4.0703998937       -1.4218792609        0.9193938365
 C         -2.8233788336       -2.0209642584        0.9172971178
 O         -2.6942153916       -2.9319892603        1.7591055286
 O         -1.2988683723       -0.0786414569       -1.7378755820
 C         -0.5282095158       -2.3096614668        0.0676992898
 C          0.4782999165       -1.5583133347        0.8996665437
 C          1.1690677713       -2.1886303716        1.9276110820
 C          2.1046708680       -1.4960172860        2.6772037600
 C          2.3740574330       -0.1649981712        2.4137848230
 C          1.6905503662        0.4730221419        1.3863539186
 C          0.7503896256       -0.2217855108        0.6394994018
 H          0.2239424370        0.2783692527       -0.1599409996
 N          1.9643114856        1.8261626500        1.0974667454
 S          3.5508169142        2.2016341799        0.7060968344
 O          4.3601201066        2.1192837055        1.8958094936
 O          3.4947714976        3.4925172143        0.0595424967
 C          4.0410300269        0.9418103794       -0.4559343884
 C          4.6549064006       -0.2066275474        0.0027607829
 C          4.9581996970       -1.2098152971       -0.9038251298
 C          4.6473078634       -1.0476875481       -2.2449084586
 C          4.0368800033        0.1147577160       -2.6905435938
 C          3.7225455979        1.1176830789       -1.7879601036
 H          3.2469591398        2.0357366316       -2.0943742733
 H          3.7962291462        0.2394326150       -3.7339675927
 H          4.8798716853       -1.8321833734       -2.9471361516
 H          5.4322175602       -2.1149912243       -0.5604778055
 H          4.8882683614       -0.2911765845        1.0510959535
 H          1.3448543442        2.2065905730        0.3954134355
 H          3.1030788458        0.3889416661        2.9830179516
 H          2.6288523878       -1.9971649911        3.4766215354
 H          0.9584606829       -3.2252853892        2.1461896930
 H         -0.7497564594       -3.2528897086        0.5907997721
 C          0.0048938543       -2.6785721600       -1.3118639907
 C          1.1931421500       -2.0327666783       -1.9515218271
 C          1.2940535917       -3.4357594876       -1.4392971463
 H          1.3488768492       -4.2477070865       -2.1480698083
 H          1.8644734409       -3.5943041060       -0.5366184704
 H          1.1546577193       -1.8662104445       -3.0169070868
 H          1.7102160524       -1.2556044145       -1.4117500339
 H         -0.7981668910       -2.9706829604       -1.9814350353
