  62
        -98.92794991
 C         -2.5012756993       -1.2111569661        0.1164371627
 C         -3.1129863197       -0.3684989288        1.0759527877
 C         -4.0206735998        0.6739293870        0.5708573601
 C         -4.2028591664        0.8006321323       -0.7568375031
 C         -5.0841261698        1.7399050638       -1.5530259633
 C         -5.6515856228        3.0066520162       -0.9168064943
 C         -4.6087174342        4.0522630619       -0.5247109905
 H         -5.1230450701        4.8699096875       -0.0148031978
 H         -4.1607830098        4.4573234241       -1.4355315088
 C         -3.4729084998        3.5511166745        0.3641722264
 H         -2.8218269248        4.4013865853        0.5851368458
 H         -2.8720209487        2.8215751001       -0.1830679445
 C         -3.9050745387        2.9392435000        1.6958385636
 H         -4.5477955002        3.6402920418        2.2317656675
 H         -3.0030709207        2.7880897613        2.2952693394
 C         -4.6273158634        1.5829162397        1.6004103737
 H         -5.6914904085        1.7117044284        1.4173748300
 H         -4.5191828892        1.0748444598        2.5630710254
 H         -6.2738336678        2.7550826638       -0.0629919736
 H         -6.3082926701        3.4607236694       -1.6639221209
 H         -5.9204590116        1.1311670835       -1.9141844070
 H         -4.4990209927        2.0144914220       -2.4362372753
 O         -3.5811755578       -0.0247096667       -1.6456075906
 C         -2.7134396072       -1.0341406362       -1.2510307013
 O         -2.2203183789       -1.6659124704       -2.1995034471
 O         -2.9113924846       -0.4829387089        2.3167447289
 C         -1.5390465941       -2.2758172429        0.6295260045
 C         -0.1623444924       -1.9673676360        0.0949911863
 C          0.4126836484       -2.4971507553       -1.0537015132
 C          1.6669352713       -2.0806379693       -1.4680755997
 C          2.3738237773       -1.1215963731       -0.7674131469
 C          1.8085475537       -0.5738943477        0.3766640199
 C          0.5603218695       -1.0062570779        0.7979022550
 H          0.1222413855       -0.5705876090        1.6876328631
 N          2.4889827186        0.4302280152        1.0830584990
 S          4.1294346153        0.2707408241        1.3821524847
 O          4.5167342354       -1.1154412632        1.5041131562
 O          4.3832883898        1.1115722880        2.5315602575
 C          4.8979387532        0.9987574733       -0.0493316966
 C          5.8749446877        0.3042189312       -0.7350832064
 C          6.4702560076        0.8974970479       -1.8375718120
 C          6.0807917524        2.1683138596       -2.2316750711
 C          5.0994879315        2.8535214954       -1.5307020274
 C          4.5014489182        2.2666055881       -0.4271519806
 H          3.7368905517        2.7664192114        0.1441743825
 H          4.7984040459        3.8413559869       -1.8406000188
 H          6.5441561896        2.6278400302       -3.0904373470
 H          7.2334142698        0.3667373643       -2.3837168074
 H          6.1417868037       -0.6841473959       -0.3959985182
 H          1.9966284521        0.7683362461        1.8966547113
 H          3.3472257171       -0.7958407988       -1.0955954293
 H          2.0951131340       -2.5062896219       -2.3629847536
 H         -0.1214160915       -3.2117432695       -1.6529042666
 H         -1.4957404701       -2.0837438707        1.7135607871
 C         -2.1175017635       -3.6784718840        0.5093040244
 C         -2.2919173607       -4.4634893106       -0.7544939595
 C         -1.2919361209       -4.9068418725        0.2706456138
 H         -1.5152549895       -5.7900265721        0.8507363351
 H         -0.2425249695       -4.7763921949        0.0587308571
 H         -3.2029939442       -5.0364966597       -0.8565288342
 H         -1.9621850479       -4.0271451075       -1.6821503957
 H         -2.9291972487       -3.7900672677        1.2250584467
