  62
        -98.92918177
 C          1.5045632054        0.8453723855        0.7274300710
 C          2.4620277782        1.0198801575       -0.2986899793
 C          3.7908850036        0.4038630226       -0.0819538919
 C          4.0229502343       -0.2689548051        1.0590711269
 C          5.2710020599       -0.9973584135        1.4834488988
 C          5.4460009899       -2.3441324837        0.7650720322
 C          5.1937941915       -2.3044400346       -0.7396354698
 H          5.2597460828       -3.3296300231       -1.1138042804
 H          4.1743965850       -1.9593772235       -0.9225708399
 C          6.1732169398       -1.4496636548       -1.5406998413
 H          7.1891401846       -1.8107962665       -1.3661601771
 H          5.9440650838       -1.6023775996       -2.5984036207
 C          6.1342059824        0.0547328428       -1.2609056987
 H          6.6726543411        0.5498441383       -2.0742358502
 H          6.6664017665        0.3000368844       -0.3457254518
 C          4.7344864279        0.6598137450       -1.2326807965
 H          4.8246678344        1.7505721069       -1.2984111409
 H          4.1956120393        0.3616519750       -2.1392461478
 H          6.4563133219       -2.7089734010        0.9584590627
 H          4.7409116070       -3.0555132006        1.2027070268
 H          6.1421857701       -0.3658987764        1.3369225098
 H          5.1729224174       -1.1856388734        2.5550250820
 O          3.0675517530       -0.4082092799        2.0243734503
 C          1.8058724467        0.1294198638        1.8880979406
 O          1.0487981746       -0.0850076762        2.8588611874
 H         -1.2362638609       -0.8567233258        0.4982807249
 C         -1.2633373019       -0.3398557666       -0.4500932309
 C         -0.6062131939        0.8786583256       -0.5898342480
 C         -0.6167730336        1.4815984744       -1.8428165141
 C         -1.2746014244        0.8859297154       -2.9053487424
 C         -1.9592590809       -0.3048097484       -2.7468499349
 C         -1.9479976224       -0.9249011861       -1.5039548355
 N         -2.6481698022       -2.1227654429       -1.2798706470
 S         -3.5309601927       -2.2488115750        0.1388418457
 O         -2.6729536708       -2.6410472176        1.2283031202
 O         -4.6024047477       -3.1684563854       -0.1807622050
 C         -4.1807823701       -0.6081686153        0.4058071208
 C         -5.0914308721       -0.1196906755       -0.5109227618
 C         -5.5553928740        1.1776125165       -0.3699315093
 C         -5.0965128967        1.9640680938        0.6758845525
 C         -4.1894882575        1.4566163594        1.5927544313
 C         -3.7261262810        0.1572017932        1.4598914090
 H         -3.0177956625       -0.2697299809        2.1526544084
 H         -3.8316023830        2.0669678165        2.4062993943
 H         -5.4476249714        2.9785289842        0.7790758352
 H         -6.2661109595        1.5733031985       -1.0773071388
 H         -5.4286348336       -0.7620430630       -1.3081350239
 H         -3.1781936349       -2.4513231916       -2.0741609627
 H         -2.4855005860       -0.7563707233       -3.5738793399
 H         -1.2612818089        1.3668597725       -3.8715946519
 H         -0.0800595319        2.3971274387       -2.0106938045
 C          0.0879937080        1.4033087801        0.6428469930
 H         -0.4277197110        0.9381389674        1.4974758227
 C          0.0573481171        2.8980492607        0.9388410716
 C          0.5751125081        3.9809871359        0.0427630286
 C         -0.8973144215        3.8588296268        0.2969737379
 H         -1.3671953666        4.6017441678        0.9239453529
 H         -1.5279446816        3.4876493239       -0.4951168897
 H          1.1076331026        4.7969900926        0.5113298158
 H          0.9849839331        3.7030112563       -0.9135861702
 H          0.2491667116        3.0533197144        1.9983111350
 O          2.2483054878        1.6550552559       -1.3612182999
