  62
        -98.93633623
 C          1.9171580300        1.1970584600       -0.1632403709
 C          3.0378261601        1.1538056801        0.7033788991
 C          4.2502922201        0.4649183901        0.2219379591
 C          4.2344840000       -0.0806160901       -1.0080102608
 C          5.3222494900       -0.8536018802       -1.7057777407
 C          5.4708458801       -2.2862116001       -1.1705874705
 C          5.4550336301       -2.4073230199        0.3507716795
 H          4.5159000401       -2.0031297398        0.7332391795
 H          5.4732940501       -3.4719672898        0.5987637597
 C          6.6259949201       -1.7398870697        1.0683843494
 H          7.5622041601       -2.1602512898        0.6944650694
 H          6.5457878302       -1.9988975796        2.1272357994
 C          6.6971274501       -0.2147824998        0.9590767791
 H          7.4017459001        0.1329604604        1.7201006490
 H          7.1036363501        0.0937840801       -0.0004356009
 C          5.3778294301        0.5029151903        1.2249498091
 H          4.9565097002        0.1437074804        2.1708514591
 H          5.5858537601        1.5668961403        1.3903405689
 H          4.6416069900       -2.8816024302       -1.5609276203
 H          6.3995281500       -2.7052445302       -1.5618596704
 H          6.2642218100       -0.3173344802       -1.6391300508
 H          5.0423422900       -0.9042981704       -2.7604710007
 O          3.1339264700       -0.0197703703       -1.8085452608
 C          1.9581923800        0.6046453598       -1.4251715308
 O          1.0618186500        0.5490175496       -2.2888198208
 O          3.0331085101        1.6806962603        1.8488624390
 C          0.6921262801        1.9371833001        0.3451350090
 C         -0.3324552299        1.0005741401        0.9317824892
 C         -0.8740146099        1.2355786603        2.1903188592
 C         -1.8271766598        0.3823231704        2.7194574594
 C         -2.2650677098       -0.7163009297        2.0024094396
 C         -1.7336897999       -0.9568997599        0.7415109496
 C         -0.7743956499       -0.1034715500        0.2153224094
 H         -0.3662413100       -0.2963664601       -0.7658005906
 N         -2.1864982799       -2.0595656900       -0.0058523102
 S         -3.8456717699       -2.2497435501       -0.1441675001
 O         -4.3541306498       -2.8839440499        1.0468717300
 O         -4.0490983799       -2.9712715803       -1.3800931600
 C         -4.4891309899       -0.5906382101       -0.2668944703
 C         -4.1675413600        0.1476949797       -1.3886542605
 C         -4.6112552300        1.4571052097       -1.4792264607
 C         -5.3595581700        2.0046930598       -0.4484876207
 C         -5.6786229299        1.2486990400        0.6686242194
 C         -5.2397827399       -0.0622490300        0.7636255096
 H         -5.4663135999       -0.6853516398        1.6131171797
 H         -6.2630547499        1.6765093401        1.4670670094
 H         -5.6943682400        3.0273399798       -0.5190532109
 H         -4.3626312201        2.0464301095       -2.3470319308
 H         -3.5831742300       -0.3081444004       -2.1727352304
 H         -1.7383128799       -2.1415348902       -0.9070721902
 H         -3.0020602198       -1.3955240497        2.3990065197
 H         -2.2333592898        0.5737340706        3.7006714094
 H         -0.5320162699        2.0867986904        2.7603491090
 H          1.0735374201        2.5617198702        1.1682384389
 C          0.1005408200        2.8807218899       -0.6946047111
 C         -1.1793167200        2.6239894497       -1.4252855710
 C         -1.1225290400        3.6887114999       -0.3741470212
 H         -1.1522346900        4.7236880499       -0.6785577014
 H         -1.6180183700        3.4856818701        0.5631810189
 H         -1.2248296701        2.9134982496       -2.4639855511
 H         -1.7228618200        1.7197936898       -1.2028553408
 H          0.8797265500        3.3823988198       -1.2607970212
