  62
        -98.94448831
 C         -2.6447033230       -1.2892527628        0.1087877857
 C         -2.5822895997       -0.2957787187       -0.8983385897
 C         -3.5376445485        0.8147088523       -0.7642279738
 C         -4.4042883771        0.8250364197        0.2642985404
 C         -5.3900580488        1.9201533652        0.5481960149
 C         -4.7897317084        2.9777379770        1.4849624691
 C         -3.4066475982        3.4696705475        1.0574426195
 H         -3.0977507648        4.2350084595        1.7727820512
 H         -2.6905245992        2.6482625466        1.1403579258
 C         -3.3488427828        4.0474643403       -0.3635336731
 H         -2.7703457600        4.9734117855       -0.3412324292
 H         -4.3542290317        4.3005850779       -0.7023176285
 C         -2.6824755760        3.1339192499       -1.3942894274
 H         -1.7092479589        2.8045072320       -1.0185403816
 H         -2.4987734700        3.7202092962       -2.2989828810
 C         -3.4885135558        1.8955783371       -1.8071347419
 H         -4.4964915475        2.1947198294       -2.1016599968
 H         -2.9932301632        1.4527330062       -2.6763172836
 H         -5.4776645460        3.8234837107        1.5366242763
 H         -4.7042619460        2.5464935878        2.4849170683
 H         -5.6941053740        2.3806850715       -0.3896345880
 H         -6.2654783839        1.4786751070        1.0272443303
 O         -4.4466128938       -0.1545184386        1.2022818916
 C         -3.5614759427       -1.2168616985        1.1617184516
 O         -3.6920866778       -2.0273092246        2.1002672535
 O         -1.7826771945       -0.3218735989       -1.8718676633
 C         -1.6887932678       -2.4735133340        0.1301972750
 C         -0.3163776402       -1.9594404183        0.4918914514
 C          0.0415124324       -1.8451929255        1.8322162063
 C          1.2638783966       -1.3092521831        2.1924906376
 C          2.1499692419       -0.8653664129        1.2259668461
 C          1.7940349738       -0.9583989083       -0.1122877917
 C          0.5766858318       -1.5204315845       -0.4731931641
 H          0.3052020131       -1.5711019987       -1.5156409637
 N          2.6782420318       -0.4920446748       -1.1013364403
 S          3.3294904150        1.0432924720       -0.9024096701
 O          2.4637650263        1.8975906797       -0.1223799486
 O          3.6510630294        1.4976106908       -2.2379082616
 C          4.8472042799        0.7390146545       -0.0200614180
 C          5.1213099328        1.4329481064        1.1420648315
 C          6.3138916868        1.1866127958        1.8047854454
 C          7.2069414878        0.2563926621        1.2957290411
 C          6.9179559966       -0.4305064951        0.1258892095
 C          5.7283448796       -0.1879181177       -0.5418978608
 H          5.4671681823       -0.6977497697       -1.4540611448
 H          7.6148804900       -1.1532828608       -0.2668164182
 H          8.1335085643        0.0657930055        1.8138435536
 H          6.5399783103        1.7200828413        2.7140923577
 H          4.3939540686        2.1423035550        1.5040578366
 H          2.3162582066       -0.6005651840       -2.0384528456
 H          3.0991082716       -0.4343075808        1.4999391348
 H          1.5293033465       -1.2315828327        3.2359422268
 H         -0.6607863504       -2.1671120092        2.5886642062
 H         -2.0340292123       -3.1200710930        0.9475183976
 C         -1.7229264977       -3.2657929021       -1.1601813273
 C         -1.1162365243       -4.6354562822       -1.1895873815
 C         -2.6045832398       -4.4732781611       -1.2520725551
 H         -3.1079309017       -4.6725388015       -2.1863049574
 H         -3.1853849465       -4.7354879919       -0.3797294204
 H         -0.5953834503       -4.9501720155       -2.0808523151
 H         -0.6854825510       -5.0079161293       -0.2725474024
 H         -1.6355562522       -2.6530120083       -2.0480679785
