  62
        -98.92699225
 C         -2.3846091349       -0.0661917501       -0.6369341855
 C         -3.3886183764        0.7647512762       -0.0819588746
 C         -4.6074254568        0.0776119281        0.3853784318
 C         -4.6884227926       -1.2615619496        0.3016313839
 C         -5.8873115652       -2.0901340821        0.6667656163
 C         -6.9505479649       -1.9971042355       -0.4464048537
 C         -8.2482448029       -1.3079045229       -0.0238832426
 H         -8.8233706226       -1.1097268775       -0.9309077059
 H         -8.8312651839       -1.9959899593        0.5918863887
 C         -8.0866382138       -0.0014198673        0.7592591327
 H         -9.0590743770        0.4956674014        0.7522584823
 H         -7.8594078603       -0.2245758890        1.8027669099
 C         -7.0307237383        0.9751423748        0.2254839395
 H         -7.4244658101        1.9886897179        0.3254807292
 H         -6.8537121396        0.8072641673       -0.8371142864
 C         -5.6873415715        0.9405020601        0.9780152392
 H         -5.2652371477        1.9499327037        0.9854676358
 H         -5.8582773052        0.6490213178        2.0180463376
 H         -7.1958580621       -2.9997365868       -0.7998549489
 H         -6.5131173915       -1.4643049233       -1.2933767616
 H         -6.2951729371       -1.7493631618        1.6158168614
 H         -5.5468850140       -3.1193624253        0.7820741711
 O         -3.6902653817       -2.0283322153       -0.2104291110
 C         -2.5270386297       -1.4551451706       -0.6913897831
 O         -1.7027693754       -2.2745760615       -1.1455178820
 O         -3.2944271911        2.0136846550        0.0286549940
 C         -1.0747497696        0.4672974773       -1.1937265271
 C         -0.0315940271        0.5731884517       -0.1104149101
 C         -0.2947720953        1.2350089894        1.0846438067
 C          0.6795014420        1.3291448152        2.0618284714
 C          1.9289857819        0.7654394667        1.8724012907
 C          2.2018422380        0.1011348972        0.6842643402
 C          1.2234447323        0.0135936657       -0.2989577499
 H          1.4348227499       -0.5154095601       -1.2187173008
 N          3.4627690817       -0.4918642551        0.4912996857
 S          4.8165322800        0.4246833140        0.9227889096
 O          5.0153966439        0.3037380415        2.3450367545
 O          4.6811856263        1.7718954904        0.4158774934
 C          6.1052426125       -0.4446896238        0.0531818135
 C          6.6209668466       -1.5987596283        0.6118494000
 C          7.6043026936       -2.2925367101       -0.0751090018
 C          8.0518573386       -1.8242239966       -1.3017180985
 C          7.5250105391       -0.6640102681       -1.8489152186
 C          6.5402068814        0.0342623045       -1.1679583433
 H          6.1081110202        0.9449312342       -1.5510226276
 H          7.8769228893       -0.3013328912       -2.8012768520
 H          8.8181695898       -2.3655356061       -1.8336988888
 H          8.0181652186       -3.1938797053        0.3473452708
 H          6.2486904175       -1.9199189350        1.5706058410
 H          3.5653162581       -0.8724855744       -0.4397736128
 H          2.6968875457        0.8372644971        2.6257549313
 H          0.4643573797        1.8487086736        2.9838341709
 H         -1.2657923838        1.6817764478        1.2349067875
 H         -0.7332834935       -0.3034460388       -1.9030246328
 C         -1.2426495663        1.7587441478       -1.9835963737
 C         -0.7328909360        3.0888639546       -1.5267279029
 C         -0.0562690284        2.3809610170       -2.6593185793
 H         -0.1726797380        2.7678278559       -3.6603045165
 H          0.9125216785        1.9461405719       -2.4620676953
 H         -1.3403930126        3.9551486438       -1.7391688418
 H         -0.2170782549        3.1436786829       -0.5810132107
 H         -2.1757777868        1.7713224285       -2.5374782442
