  62
        -98.94462138
 C          2.6680244066        1.2911895688        0.1252006772
 C          2.5582461916        0.2926131499       -0.8730405591
 C          3.5369306893       -0.7997260681       -0.7907257641
 C          4.4800189265       -0.7880781672        0.1683438462
 C          5.5605783567       -1.8165743618        0.3636253508
 C          5.1142934895       -3.0428677802        1.1714521890
 C          4.1741421299       -3.9990600181        0.4364061626
 H          4.6091850562       -4.2672174556       -0.5268171422
 H          4.1145100224       -4.9116721002        1.0325955137
 C          2.7538092470       -3.4547342811        0.2271292514
 H          2.5810267120       -2.6109323707        0.8996020846
 H          2.0236087219       -4.2234472065        0.4903831674
 C          2.4463155264       -3.0146468660       -1.2044352811
 H          2.4802537689       -3.8809643805       -1.8692508200
 H          1.4280818172       -2.6151704902       -1.2267977567
 C          3.3951525905       -1.9402921773       -1.7526556428
 H          4.3686772961       -2.3770074485       -1.9745702297
 H          2.9677410443       -1.5459721382       -2.6778954484
 H          4.6365475575       -2.6998195207        2.0919838581
 H          6.0146615546       -3.5954230321        1.4492937008
 H          5.9418370714       -2.1369143442       -0.6062369239
 H          6.3664241385       -1.3204443080        0.9086751680
 O          4.5703207975        0.2063422288        1.0906193227
 C          3.6523753232        1.2421170774        1.1153792322
 O          3.8209325349        2.0530425210        2.0477886824
 H         -0.4251886365        1.7834024512       -1.4404145184
 C         -0.6221785884        1.5670244230       -0.4026386659
 C          0.3306823126        1.8665564030        0.5574356272
 C          0.0633145193        1.5450144588        1.8856030043
 C         -1.1297698361        0.9443139299        2.2395968102
 C         -2.0767925820        0.6401493803        1.2763503786
 C         -1.8112622238        0.9398836214       -0.0522144646
 N         -2.7588447265        0.6205603518       -1.0398076368
 S         -3.4381094385       -0.9145317139       -1.0203055702
 O         -2.5591151333       -1.8874324693       -0.4141674578
 O         -3.8383386013       -1.1690324348       -2.3872979099
 C         -4.9018798556       -0.7089330043       -0.0251617597
 C         -5.1314597434       -1.5501751357        1.0457638606
 C         -6.2836566605       -1.3798238151        1.7977689451
 C         -7.1820393162       -0.3773281917        1.4662819591
 C         -6.9382717002        0.4577918862        0.3859592321
 C         -5.7889798532        0.2921011387       -0.3700618106
 H         -5.5643021123        0.9170905667       -1.2180978317
 H         -7.6390659732        1.2365386335        0.1314317120
 H         -8.0773176411       -0.2462386481        2.0533365426
 H         -6.4746441991       -2.0286727397        2.6375145755
 H         -4.4022582749       -2.3129099651        1.2691607978
 H         -2.4583970376        0.8619447096       -1.9736315890
 H         -3.0035073551        0.1586349779        1.5428157127
 H         -1.3246755934        0.7055081136        3.2741664780
 H          0.8137523295        1.7604489224        2.6340611825
 C          1.6785966928        2.4440418047        0.2005161731
 H          2.0125958475        3.0735310260        1.0358002723
 C          1.6804884747        3.2746905120       -1.0653589563
 C          1.0444505772        4.6313174287       -1.0512509324
 C          2.5353231333        4.5029940897       -1.1304542754
 H          3.0258915081        4.7392350782       -2.0628670408
 H          3.1187611644        4.7518741286       -0.2560166208
 H          0.6137854831        4.9680367876       -0.1204521616
 H          0.5097311226        4.9605158527       -1.9290759839
 H          1.5995034346        2.6833135602       -1.9688578334
 O          1.7008833570        0.3043627255       -1.7956333007
