  62
        -98.93609754
 C          2.3133709382        1.0897733419        0.1479726202
 C          3.5581716670        0.9308522168        0.8095972121
 C          4.5298830013        0.0054233894        0.2034539949
 C          4.1874642236       -0.6730218780       -0.9069765206
 C          4.9705208183       -1.6498675857       -1.7588832766
 C          6.2501192702       -2.2946965341       -1.2320104036
 C          6.0497255967       -3.2513071404       -0.0573744944
 H          5.5110763019       -4.1327908822       -0.4144070130
 H          7.0333571207       -3.5791063838        0.2860394980
 C          5.2726567819       -2.6860099830        1.1290943379
 H          4.2483887305       -2.4613943099        0.8234629558
 H          5.2147843095       -3.4668198542        1.8923966581
 C          5.8816848804       -1.4450244084        1.7792948590
 H          6.9204360082       -1.6440947356        2.0494159007
 H          5.3269151432       -1.2523062424        2.7013705880
 C          5.8312955233       -0.1599773224        0.9339326027
 H          6.6677323206       -0.1080546025        0.2409533512
 H          5.9134985455        0.6933379704        1.6132600042
 H          6.9808091891       -1.5318067552       -0.9799768977
 H          6.6690253550       -2.8729754006       -2.0601252124
 H          4.2601574470       -2.4358009979       -2.0349788701
 H          5.2095085431       -1.1132234662       -2.6839542986
 O          2.9681851206       -0.5093932061       -1.4958984290
 C          2.0036515158        0.3568807120       -0.9978819621
 O          0.9557101734        0.3665466715       -1.6709547553
 O          3.8527994840        1.5461213418        1.8684629730
 C          1.3045182564        2.0287396052        0.7884795177
 C         -0.0074031854        1.3110414888        0.9709924503
 C         -0.1691529003        0.4427804084        2.0464880230
 C         -1.3408982454       -0.2729192423        2.2045275836
 C         -2.3690920967       -0.1485755966        1.2863184276
 C         -2.2082825839        0.6990381725        0.1990026055
 C         -1.0425415465        1.4408225710        0.0594383425
 H         -0.9229002017        2.0895229690       -0.7942401631
 N         -3.2386958353        0.8222429784       -0.7477131475
 S         -4.0217840228       -0.5637489566       -1.2776679845
 O         -3.1745805650       -1.7320106960       -1.2195999444
 O         -4.5565174100       -0.2185732500       -2.5773488293
 C         -5.3761810344       -0.7367903989       -0.1313117380
 C         -5.5943097008       -1.9466417958        0.4981288288
 C         -6.6605329127       -2.0638126078        1.3764328033
 C         -7.4868446064       -0.9749541793        1.6075463536
 C         -7.2565381650        0.2325511457        0.9651810801
 C         -6.1931513060        0.3556711878        0.0853503693
 H         -5.9818258407        1.2747758647       -0.4349280368
 H         -7.9013493526        1.0771508784        1.1472781046
 H         -8.3150424726       -1.0681478026        2.2921746325
 H         -6.8408154301       -3.0023463087        1.8756775631
 H         -4.9218785886       -2.7644221714        0.2918873552
 H         -2.9919939717        1.4101454208       -1.5311305722
 H         -3.2781507125       -0.7175713576        1.3926833854
 H         -1.4550136664       -0.9389858171        3.0463110367
 H          0.6419130464        0.3275929593        2.7523351244
 H          1.7239574393        2.2331675175        1.7865918211
 C          1.1540087226        3.3775827062        0.1013177442
 C          2.3555388078        4.0887837172       -0.4436330968
 C          1.3012803585        3.5761300395       -1.3761996121
 H          0.6534915732        4.2940863920       -1.8586781575
 H          1.5239981265        2.7149689577       -1.9863252589
 H          2.4391465896        5.1544901394       -0.2935636990
 H          3.2995685644        3.5647939103       -0.4061805408
 H          0.4116084191        3.9953488945        0.5979722936
