  62
        -98.93812454
 C          2.0469691891        1.6293380762       -0.2615981363
 C          2.4438344407        0.6313028817       -1.1865509133
 C          3.6778796627       -0.1002623391       -0.8417326926
 C          4.3602390505        0.2210421312        0.2704968893
 C          5.5867785964       -0.4885616704        0.7649550796
 C          5.2171298299       -1.6265114342        1.7267742621
 C          4.1195284112       -2.5510647830        1.1990560814
 H          3.9640597340       -3.3318788126        1.9468656743
 H          3.1839651079       -1.9913514167        1.1229599435
 C          4.4324379801       -3.1987772392       -0.1570963623
 H          5.5033255677       -3.1426387354       -0.3562880460
 H          4.1656303897       -4.2567068049       -0.1095293382
 C          3.6669878174       -2.6011133523       -1.3395194155
 H          2.5977008845       -2.5731853427       -1.1102605202
 H          3.7960940904       -3.2653902944       -2.1985812801
 C          4.1044831194       -1.1970975862       -1.7763828341
 H          5.1857420888       -1.1787404048       -1.9273395998
 H          3.6185646249       -0.9820980812       -2.7328450814
 H          6.1163030974       -2.2094312559        1.9343412053
 H          4.8710908033       -1.1876779820        2.6653973848
 H          6.1409333654       -0.8818853714       -0.0849155624
 H          6.2119672162        0.2331369147        1.2932728617
 O          3.9726562344        1.2152337529        1.1099449655
 C          2.8026205790        1.9168398147        0.8793871353
 O          2.5457427920        2.7781943745        1.7445370071
 H          0.0046602972       -0.1804436822       -0.2236096081
 C         -0.5471924069        0.4501761374        0.4575938230
 C         -0.2969738774        1.8153624329        0.5045997165
 C         -1.0214526704        2.5967718023        1.3981719408
 C         -1.9677786063        2.0278379012        2.2313344697
 C         -2.2227711087        0.6698688258        2.1725128436
 C         -1.5088079421       -0.1199123086        1.2789822110
 N         -1.7606804984       -1.5073869722        1.1733213768
 S         -2.5656264755       -1.9782834282       -0.2209696366
 O         -2.8299091019       -3.3903719214       -0.0581400559
 O         -1.8030590112       -1.5848971801       -1.3747856247
 C         -4.0988935889       -1.0666775497       -0.1513448761
 C         -4.1195925356        0.2405267563       -0.5956272800
 C         -5.2881661833        0.9738770872       -0.4627066953
 C         -6.4081284625        0.3920331191        0.1113581025
 C         -6.3718881024       -0.9225737521        0.5514019056
 C         -5.2052437267       -1.6595366478        0.4253204976
 H         -5.1315332096       -2.6852101849        0.7493553532
 H         -7.2454437653       -1.3736302021        0.9938671765
 H         -7.3147879239        0.9669625916        0.2142617619
 H         -5.3160654140        1.9953496014       -0.8062306109
 H         -3.2318596495        0.6582354317       -1.0424838521
 H         -2.2504533763       -1.8858022645        1.9733421208
 H         -2.9615567609        0.2189312139        2.8182077722
 H         -2.5130293417        2.6458608862        2.9276509506
 H         -0.8190521860        3.6561988890        1.4511588830
 C          0.7622120763        2.4363968711       -0.3719183647
 H          0.9986429936        3.4226932454        0.0606272495
 C          0.2850006873        2.6843253422       -1.7938361451
 C         -0.7466558060        1.8496535868       -2.4833489476
 C         -1.0901819516        3.2364166198       -2.0348459129
 H         -1.2145034581        4.0034091224       -2.7841486135
 H         -1.7397573184        3.3421398742       -1.1786622368
 H         -1.1564331369        0.9990698105       -1.9608972971
 H         -0.6054378571        1.6607965365       -3.5368444557
 H          1.0842763556        3.0667703178       -2.4205507891
 O          1.8315263042        0.3481060542       -2.2466346683
