  62
        -98.93711603
 C         -2.5580009074       -0.1406625677       -0.1464332444
 C         -2.2420985311       -1.2420171965       -0.9794454864
 C         -1.6389352151       -2.4180249592       -0.3331541386
 C         -1.4363768377       -2.4049913760        0.9950968410
 C         -0.8971969250       -3.5013101332        1.8808998452
 C          0.3103932570       -4.2987655002        1.3743410427
 C          1.3259290791       -3.4876441557        0.5560843934
 H          1.1240828658       -2.4178746134        0.6481992244
 H          2.3261643817       -3.6627904943        0.9581566408
 C          1.3438495374       -3.8748241699       -0.9244146006
 H          2.2872001672       -3.5372403137       -1.3609082825
 H          1.3099671645       -4.9642204212       -1.0056553778
 C          0.2237643082       -3.2721477128       -1.7706340181
 H          0.3076137972       -3.6808729725       -2.7811566547
 H          0.3756976185       -2.1910522189       -1.8501377386
 C         -1.2050039843       -3.5202401126       -1.2557655201
 H         -1.2906026004       -4.4980027077       -0.7870641812
 H         -1.8840711279       -3.4826390141       -2.1121440781
 H         -0.0331041393       -5.1428590440        0.7776062301
 H          0.8025859929       -4.7147435126        2.2553096696
 H         -0.6362605489       -3.0016983924        2.8170088270
 H         -1.7164078962       -4.1933707407        2.0995536881
 O         -1.7690361284       -1.3317485838        1.7638170892
 C         -2.2518764897       -0.1548980886        1.2153346663
 O         -2.3833611613        0.7655028112        2.0444651640
 O         -2.4559093129       -1.2423383622       -2.2232506387
 C         -3.0007376442        1.1480445395       -0.8237383133
 C         -1.9988707276        2.2108974846       -0.4475420299
 C         -2.3053048650        3.4152247022        0.1686173014
 C         -1.2890641506        4.2701686594        0.5634310506
 C          0.0395442930        3.9329987446        0.3815858603
 C          0.3538690243        2.7330429602       -0.2480313770
 C         -0.6643006322        1.9082119052       -0.6879136375
 H         -0.4127753141        0.9786361131       -1.1788477234
 N          1.6868160858        2.3277643898       -0.4505030852
 S          1.9879557917        0.6639768796       -0.3314435548
 O          1.7305504766        0.0609200039       -1.6157551142
 O          1.2882397855        0.1014197633        0.8003650909
 C          3.7460472248        0.6749457496       -0.0340835867
 C          4.5894949766        0.9537239817       -1.0933513121
 C          5.9561621432        0.9942533850       -0.8684236093
 C          6.4541547323        0.7556339983        0.4042034164
 C          5.5957641027        0.4740840019        1.4561680448
 C          4.2270748183        0.4345318303        1.2384457870
 H          3.5204070870        0.2147832402        2.0229160253
 H          5.9851610336        0.2852694873        2.4435406591
 H          7.5183057182        0.7866799651        0.5767545167
 H          6.6266405787        1.2101228470       -1.6844509299
 H          4.1559848726        1.1214078720       -2.0653739054
 H          2.3438910142        2.8614450824        0.1028848800
 H          0.8268199019        4.5841079929        0.7302483307
 H         -1.5368560477        5.2014185218        1.0502257055
 H         -3.3331253709        3.6686822497        0.3711243069
 H         -2.8804325710        0.9365053394       -1.9004495803
 C         -4.4516316250        1.5502035764       -0.6268799256
 C         -5.4999707337        0.5184110176       -0.3380579911
 C         -5.1361383750        1.5294492022        0.7054759500
 H         -5.8463624809        2.3141204920        0.9226667392
 H         -4.5603558198        1.2092903830        1.5584669174
 H         -6.4567330825        0.6030661301       -0.8311843228
 H         -5.1662106228       -0.4998411923       -0.1977505046
 H         -4.7399172908        2.3480697677       -1.3051334984
