  62
        -98.94557256
 C         -1.9642453301       -1.5179294833       -0.0900545488
 C         -1.6916388639       -0.2711840809       -0.7041136640
 C         -2.8225519187        0.6669869927       -0.7653006811
 C         -4.0211249046        0.2889475200       -0.2847377314
 C         -5.2427677007        1.1599783846       -0.2446342384
 C         -5.3355397761        1.9241595774        1.0834557120
 C         -4.0409105342        2.6360998028        1.4757646163
 H         -4.2325998021        3.1671233674        2.4107611721
 H         -3.2711991535        1.8889811111        1.6827977488
 C         -3.5177740923        3.6235642918        0.4236589527
 H         -4.3178400443        3.8816707358       -0.2711745053
 H         -3.2180279108        4.5446167522        0.9280744281
 C         -2.3014640944        3.1301159879       -0.3623514302
 H         -1.5323355048        2.7812844030        0.3310271302
 H         -1.8917361266        3.9819864165       -0.9110735919
 C         -2.5677973458        2.0142572595       -1.3803432628
 H         -3.3919802040        2.3014101013       -2.0364844535
 H         -1.6657112649        1.8954456611       -1.9874168222
 H         -5.5904650943        1.2148871034        1.8744404221
 H         -6.1452817421        2.6522510130        1.0074387789
 H         -6.1229512349        0.5232635965       -0.3492990510
 H         -5.2121552364        1.8597136811       -1.0774423564
 O         -4.2488450072       -0.9292193991        0.2711683406
 C         -3.2252085448       -1.8533760415        0.4010242961
 O         -3.5575020749       -2.9179935560        0.9611742693
 O         -0.5691903325        0.0415532617       -1.1771762614
 C         -0.8538745021       -2.5446386053        0.0490923694
 C          0.3148114892       -1.9128434046        0.7637609417
 C          0.0970751150       -1.3272831469        2.0084996700
 C          1.1240302615       -0.6987274455        2.6853993834
 C          2.3925372879       -0.6361040255        2.1346896828
 C          2.6202818497       -1.2184206357        0.8961343946
 C          1.5887018893       -1.8611584881        0.2230239993
 H          1.7857947575       -2.3066082041       -0.7392947792
 N          3.9046447537       -1.1511900473        0.3231845938
 S          4.6143901379        0.3613892513        0.1945682144
 O          5.6488966990        0.2046478810       -0.8033982270
 O          5.0541581567        0.7925676912        1.4979733362
 C          3.3270255473        1.4361825771       -0.4083251674
 C          2.9941553070        1.3645222763       -1.7459986747
 C          1.9675093518        2.1597988992       -2.2250123002
 C          1.2898854798        3.0035503188       -1.3601029003
 C          1.6325340316        3.0608605621       -0.0190323060
 C          2.6602902188        2.2689348017        0.4662087835
 H          2.9597693443        2.2884512488        1.5013435215
 H          1.0995989156        3.7172053809        0.6506220420
 H          0.4875200585        3.6192570967       -1.7342706109
 H          1.6928841581        2.1138015637       -3.2665671360
 H          3.5499314258        0.7020816784       -2.3903994992
 H          3.9732934360       -1.6380395926       -0.5592944043
 H          3.2048508402       -0.1419665963        2.6424143444
 H          0.9370668365       -0.2492153111        3.6491279251
 H         -0.8970926276       -1.3655621855        2.4338996726
 H         -1.2549556295       -3.3478925715        0.6834306981
 C         -0.5087918161       -3.1223217262       -1.3075572159
 C          0.1019104877       -4.4868463139       -1.4127057981
 C         -1.3194510175       -4.2666835695       -1.8337471959
 H         -1.5561332766       -4.2901506685       -2.8869645811
 H         -2.1088395963       -4.6467480082       -1.2016768949
 H          0.8396847741       -4.6667785256       -2.1803313573
 H          0.2808871040       -5.0265351533       -0.4950391495
 H         -0.1991656432       -2.3642200095       -2.0181059496
