  62
        -98.94088069
 C         -2.3055141609        0.4315631801       -0.2426748091
 C         -3.5579157347        0.9706369621       -0.6223034218
 C         -4.6871332176        0.0317680572       -0.6248899674
 C         -4.4717641276       -1.2553298241       -0.2962777032
 C         -5.5397998814       -2.3059459379       -0.2064806735
 C         -6.1185860541       -2.3890630035        1.2129190526
 C         -6.5182864781       -1.0342253558        1.7974808089
 H         -6.9402569979       -1.2194274993        2.7876815525
 H         -5.6200274947       -0.4287988956        1.9396769687
 C         -7.5290648808       -0.2498102562        0.9492578366
 H         -8.0235584268       -0.9218297348        0.2470282727
 H         -8.2996996502        0.1547228227        1.6087474503
 C         -6.9322156363        0.9327702073        0.1840934855
 H         -6.3554100308        1.5589517248        0.8694455096
 H         -7.7561015409        1.5403185107       -0.1995614053
 C         -6.0364314908        0.5720265188       -1.0076642197
 H         -6.5599322077       -0.1262948255       -1.6636009054
 H         -5.8422085515        1.4914002115       -1.5677302999
 H         -6.9871408369       -3.0498347921        1.1934264215
 H         -5.3660168715       -2.8352585995        1.8672408807
 H         -6.3293364867       -2.0759799200       -0.9191942535
 H         -5.0967056877       -3.2689110704       -0.4656690865
 O         -3.2493435771       -1.7415335002        0.0416885910
 C         -2.1375164383       -0.9128651645        0.0873462272
 O         -1.0834620411       -1.4857725460        0.4247389020
 H          1.5897896585        1.0089816450        0.3599782817
 C          1.3178511380        0.7156762860       -0.6393596390
 C          0.0059971101        0.8198254934       -1.0738445998
 C         -0.2970669142        0.4382019554       -2.3786426710
 C          0.6831759910       -0.0605227033       -3.2134903272
 C          1.9866694305       -0.1882820535       -2.7668250008
 C          2.3049855908        0.2086435372       -1.4736813056
 N          3.6353959910        0.1416327173       -1.0236395287
 S          3.9848065162       -0.1810313241        0.5945822845
 O          3.3749202098       -1.4230568776        1.0139630036
 O          3.6774065207        0.9851236816        1.3833285971
 C          5.7548700071       -0.3710985062        0.4799262730
 C          6.5347066181        0.7665803932        0.3898971659
 C          7.9086081749        0.6295306219        0.2731518486
 C          8.4772191460       -0.6354732126        0.2482365772
 C          7.6822876359       -1.7678002097        0.3417539945
 C          6.3069866424       -1.6376050541        0.4571243165
 H          5.6498760722       -2.4885667400        0.5404264815
 H          8.1270717757       -2.7497937115        0.3255103657
 H          9.5469514795       -0.7395814429        0.1580845597
 H          8.5302742322        1.5074633686        0.2028560924
 H          6.0488731852        1.7276635129        0.4223347404
 H          4.2173744202       -0.4226405927       -1.6283990937
 H          2.7509598041       -0.5885891936       -3.4155532306
 H          0.4302457110       -0.3610955630       -4.2193048383
 H         -1.3180454347        0.5282670114       -2.7247588133
 C         -1.0978134950        1.3484232430       -0.1919942024
 H         -1.4407884368        2.3081884325       -0.6079827645
 C         -0.6678371980        1.5688714534        1.2432197316
 C          0.0029517737        2.8476751986        1.6435380933
 C         -1.4028672323        2.5699157752        2.0813092728
 H         -1.5861299142        2.3375267207        3.1197185663
 H         -2.2036558292        3.1182240618        1.6067614939
 H          0.7949292839        2.8034872794        2.3763233438
 H          0.1565738841        3.5904647087        0.8753190472
 H         -0.3458348893        0.6517403521        1.7268305705
 O         -3.7212558518        2.1772848191       -0.9483255039
