  62
        -98.94541474
 C         -2.6458537869       -1.0625787396        0.2765045983
 C         -2.5397205489       -0.3008899383       -0.9128445338
 C         -3.1533233743        1.0345925854       -0.8736075648
 C         -3.7707340958        1.4454669062        0.2489287926
 C         -4.3838561941        2.8012545429        0.4446886218
 C         -3.3709626852        3.7851811131        1.0469463079
 C         -2.0208321356        3.8010409901        0.3288797499
 H         -1.3973207982        4.5518414630        0.8199329262
 H         -1.5231612379        2.8377123878        0.4693434270
 C         -2.1033146460        4.1085747060       -1.1727690673
 H         -1.3224436812        4.8295084063       -1.4236786543
 H         -3.0629277467        4.5730780960       -1.4036631034
 C         -1.8945646961        2.8951924380       -2.0811756959
 H         -1.7533825182        3.2575717196       -3.1031019682
 H         -0.9762161724        2.3749064560       -1.7922373458
 C         -3.0443359971        1.8795285986       -2.1110592577
 H         -3.9853153282        2.3958854339       -2.3117928924
 H         -2.8493107493        1.1836318088       -2.9321776547
 H         -3.1994377137        3.5115983945        2.0906870612
 H         -3.8057605475        4.7859525365        1.0251819770
 H         -4.7427221982        3.1735046044       -0.5126014107
 H         -5.2293244357        2.7016053714        1.1273888810
 O         -3.8605519018        0.6809671648        1.3678326655
 C         -3.2806827142       -0.5770872951        1.4183209088
 O         -3.3930750859       -1.1520106694        2.5208883787
 H         -0.3782908289       -0.7084065843        1.5414845252
 C          0.1684487898       -1.3100815595        0.8238346487
 C         -0.5129567904       -2.2860141310        0.1060320528
 C          0.1990427023       -3.0513965818       -0.8068457342
 C          1.5504473852       -2.8246596328       -1.0065730636
 C          2.2194577008       -1.8411693198       -0.3017959860
 C          1.5186599724       -1.0773195348        0.6227949242
 N          2.1924492390       -0.0730390052        1.3489319486
 S          2.8870915961        1.1599844009        0.4355950321
 O          2.9632993904        2.2958684217        1.3293203474
 O          2.1775010782        1.3651406061       -0.8058160901
 C          4.5317535642        0.5591260549        0.1165205797
 C          5.3384949331        0.2726084174        1.2005009478
 C          6.6203139325       -0.2018811457        0.9730101438
 C          7.0713659781       -0.3784238682       -0.3268346908
 C          6.2502200052       -0.0822507626       -1.4040988351
 C          4.9660720594        0.3917167072       -1.1835534422
 H          4.2885101693        0.6283671818       -1.9884816891
 H          6.6026594800       -0.2198593326       -2.4136748994
 H          8.0689795982       -0.7492608267       -0.5014239708
 H          7.2618389942       -0.4331928040        1.8079467998
 H          4.9488218896        0.4275578438        2.1927192168
 H          1.6235430991        0.3324559064        2.0793105788
 H          3.2694282577       -1.6573569098       -0.4612608891
 H          2.0895204345       -3.4209116162       -1.7267779160
 H         -0.3065858171       -3.8156634914       -1.3735492317
 C         -1.9950567122       -2.4329779053        0.3547400121
 H         -2.1364807942       -2.7793749253        1.3890618055
 C         -2.6802297399       -3.4030712789       -0.5836046066
 C         -2.6775390170       -4.8706772959       -0.2814747564
 C         -3.9394139446       -4.0767993988       -0.1309428811
 H         -4.7323435539       -4.2229310067       -0.8488719906
 H         -4.2902604077       -3.8523535233        0.8661210491
 H         -2.1739299219       -5.1950081464        0.6165488845
 H         -2.6075494957       -5.5665801640       -1.1036887950
 H         -2.6248495542       -3.0896189137       -1.6195071344
 O         -1.9634633995       -0.7121350261       -1.9527842123
