  62
        -98.93884298
 C         -2.5183095150       -1.2100830208        0.3454901367
 C         -2.6695732400       -0.4971872289       -0.8664592538
 C         -3.4543373177        0.7507719871       -0.7975252021
 C         -3.9386343997        1.1551269804        0.3892702938
 C         -4.7108403157        2.4103827410        0.6892618014
 C         -3.7652450952        3.5404890446        1.1306361897
 C         -3.1856651627        4.3786364348       -0.0081572547
 H         -3.9770815314        4.9968266900       -0.4371363221
 H         -2.4432550427        5.0511960051        0.4279667166
 C         -2.5224576371        3.5832425569       -1.1357643374
 H         -1.8497277535        4.2572320074       -1.6702198381
 H         -1.9031709270        2.7878915510       -0.7147154669
 C         -3.5316170027        2.9925460371       -2.1318155831
 H         -4.5087146314        3.4432307177       -1.9588855918
 H         -3.2384535524        3.2672960395       -3.1471628681
 C         -3.6542987631        1.4628023017       -2.1076029268
 H         -4.6310311191        1.1773290451       -2.5127495036
 H         -2.9008986121        1.0290878188       -2.7730669534
 H         -2.9511884298        3.0924229998        1.7068795269
 H         -4.3081579065        4.2106212587        1.8002467758
 H         -5.3087416471        2.7095320840       -0.1662023453
 H         -5.3785161340        2.1721269927        1.5198899184
 O         -3.7269656124        0.4605435440        1.5424063947
 C         -3.0160706677       -0.7244624136        1.5535261963
 O         -2.8900643272       -1.2404425785        2.6838147279
 H         -0.1412427088       -0.7966548098        1.5838640714
 C          0.3793705119       -1.2891250155        0.7704454007
 C         -0.2991941809       -2.2409468266        0.0179503412
 C          0.3749816002       -2.8661903906       -1.0212820887
 C          1.6890269231       -2.5315970040       -1.3029720385
 C          2.3584915430       -1.5817118949       -0.5540973113
 C          1.6947031895       -0.9546549249        0.4929726374
 N          2.3721901040        0.0043120181        1.2710183495
 S          3.0502037703        1.3109297588        0.4570571726
 O          3.1110733362        2.3751435673        1.4359373830
 O          2.3377828428        1.6012146364       -0.7657406885
 C          4.7046868678        0.7646778073        0.0914951484
 C          5.5116703321        0.3847589586        1.1460999533
 C          6.8035953520       -0.0399083113        0.8802643656
 C          7.2646098086       -0.0747622209       -0.4275165210
 C          6.4428907972        0.3129329618       -1.4747469529
 C          5.1488720060        0.7379209263       -1.2158383402
 H          4.4714824212        1.0431613709       -1.9974805891
 H          6.8028689441        0.2851342413       -2.4906509803
 H          8.2704419187       -0.4061155587       -0.6318787162
 H          7.4455923555       -0.3420809249        1.6918559112
 H          5.1151852915        0.4309097251        2.1466293091
 H          1.8290081977        0.3339188181        2.0565920178
 H          3.3805313650       -1.3183187532       -0.7724093615
 H          2.1991410224       -3.0194659483       -2.1194419945
 H         -0.1311353321       -3.6052340749       -1.6197455709
 C         -1.7399626930       -2.5149612879        0.3770150392
 H         -1.7667919030       -2.8550190425        1.4225872587
 C         -2.4052044107       -3.5593584339       -0.4927269530
 C         -2.1946871638       -5.0147458543       -0.2059393583
 C         -3.5195071820       -4.3776520507        0.0844104046
 H         -4.3607019112       -4.6206147466       -0.5471672582
 H         -3.7872478085       -4.1956865560        1.1153681962
 H         -2.1283428671       -5.7001118044       -1.0371254822
 H         -1.5629935596       -5.2723363647        0.6306091272
 H         -2.4994593629       -3.2465650609       -1.5256795379
 O         -2.1762430724       -0.8790956640       -1.9594864307
