  62
        -98.94377954
 C          1.8853567413        1.2143485477        0.4190729367
 C          1.9404117532        0.2146058653       -0.5825694069
 C          3.2881321314       -0.2438187068       -0.9519312689
 C          4.3612238506        0.3119099866       -0.3604168068
 C          5.7839686245       -0.0983261496       -0.6048911568
 C          6.2251127441       -1.1868545727        0.3835719307
 C          5.2435704895       -2.3535563522        0.4962026387
 H          5.6724838752       -3.0730102044        1.1972090793
 H          4.3106025057       -1.9943685728        0.9368756127
 C          4.9366169368       -3.0561275827       -0.8337256886
 H          4.9722184742       -4.1360597413       -0.6750250690
 H          5.7055410257       -2.8117094940       -1.5675884515
 C          3.5588966223       -2.7368588779       -1.4173299493
 H          3.3615423391       -3.4445843965       -2.2269738559
 H          2.7921071775       -2.8929734418       -0.6539387274
 C          3.3883733667       -1.3246180027       -1.9913015729
 H          4.1972134940       -1.1128956313       -2.6934758906
 H          2.4420204670       -1.3026078106       -2.5392772432
 H          6.3333787078       -0.7341419759        1.3720545950
 H          7.2025852212       -1.5603085591        0.0728956836
 H          5.8829604750       -0.4592423713       -1.6267260421
 H          6.4219597921        0.7775627250       -0.4750754578
 O          4.2682941431        1.2907896472        0.5760543344
 C          3.0330485121        1.7552938808        0.9978936154
 O          3.0870122876        2.6374094846        1.8794753255
 H         -2.1799033866        1.6042094962        0.8615206919
 C         -1.7255934213        0.7401186707        1.3222776929
 C         -0.3433000723        0.6546862982        1.4179264458
 C          0.2043677040       -0.4638860356        2.0377576655
 C         -0.6018634212       -1.4835043282        2.5088862508
 C         -1.9783582094       -1.4037645435        2.3908309059
 C         -2.5378223671       -0.2784902846        1.8043671782
 N         -3.9458769439       -0.2020657087        1.6831471598
 S         -4.6017190377       -1.1479022675        0.4618888970
 O         -6.0280667408       -0.9188900019        0.5042810371
 O         -4.1612426273       -2.5060160434        0.6448955649
 C         -3.9193745041       -0.4504984112       -1.0303773617
 C         -2.6106474511       -0.7397055384       -1.3604400650
 C         -2.0380498887       -0.1038556698       -2.4508605521
 C         -2.7831945262        0.8010525154       -3.1910258185
 C         -4.1007615152        1.0738182791       -2.8526554666
 C         -4.6735056582        0.4519881023       -1.7553531976
 H         -5.6901892083        0.6411021295       -1.4499713929
 H         -4.6770971471        1.7757049518       -3.4340305980
 H         -2.3315944824        1.2982411007       -4.0355002610
 H         -1.0044803760       -0.3041701104       -2.6846500772
 H         -2.0484317034       -1.4447137409       -0.7699322912
 H         -4.2829765794        0.7450277664        1.5718173414
 H         -2.6220487496       -2.1985440263        2.7302174880
 H         -0.1539050696       -2.3499398219        2.9721081518
 H          1.2791622397       -0.5341116827        2.1364912852
 C          0.5463423894        1.7522399655        0.8842596368
 H          0.7684866788        2.4434256142        1.7112673762
 C         -0.1113945098        2.5310251894       -0.2403544919
 C         -0.9077228536        3.7680288265        0.0454805395
 C          0.4379497558        3.8760945442       -0.6048391813
 H          0.4899850265        4.1479509986       -1.6481721181
 H          1.2633158545        4.2484891696       -0.0149776143
 H         -1.7818471676        3.9687640267       -0.5560348435
 H         -0.9945789986        4.0848559556        1.0742266838
 H         -0.4401074644        1.8885391812       -1.0492069032
 O          0.9234867454       -0.2725650687       -1.1379767814
