  62
        -98.93809574
 C         -2.2672069207       -1.0504396779       -0.3954455879
 C         -3.6590984780       -1.1176648880       -0.1204675449
 C         -4.4581471137        0.0489428948       -0.5083218443
 C         -3.8559424787        1.1080675141       -1.0777892460
 C         -4.5334583908        2.3662094138       -1.5487942160
 C         -4.7595614542        3.4047531909       -0.4416439944
 C         -5.8567634543        3.0544007579        0.5642521009
 H         -6.0570931734        3.9560376930        1.1464443639
 H         -6.7724876121        2.8026759041        0.0283711906
 C         -5.4922163305        1.9161607330        1.5277377301
 H         -4.4100381678        1.7640959198        1.5196353336
 H         -5.7657167095        2.1999581315        2.5465439033
 C         -6.1825816113        0.5854399927        1.2279682530
 H         -5.8243372369       -0.1557084351        1.9469853528
 H         -7.2608094338        0.6933464160        1.3647413850
 C         -5.9212516008        0.0415585803       -0.1826753545
 H         -6.2657656037       -0.9947971256       -0.2189912937
 H         -6.4773851296        0.6218127573       -0.9186542072
 H         -3.8164933448        3.5625005396        0.0872961500
 H         -5.0288223312        4.3453973076       -0.9276355926
 H         -3.8801747823        2.8065849233       -2.3051586582
 H         -5.4869412580        2.1162329420       -2.0149960693
 O         -2.5193974991        1.1435354264       -1.3138311222
 C         -1.6862922312        0.0850864907       -0.9643470110
 O         -0.4880134122        0.2949173524       -1.2298807608
 O         -4.2095194403       -2.1117636535        0.4227539504
 C         -1.4222108429       -2.2368355356        0.0386365005
 C         -0.2871849119       -1.7533256126        0.9032158968
 C         -0.5294581798       -1.4426282836        2.2379094236
 C          0.4769313858       -0.9348034555        3.0380711374
 C          1.7416303543       -0.7161463381        2.5206304544
 C          1.9881376254       -1.0105351938        1.1867435631
 C          0.9822265947       -1.5425566625        0.3904722740
 H          1.1777605581       -1.7531628122       -0.6493878499
 N          3.2682633085       -0.7837817613        0.6459654243
 S          4.0415305882        0.6520988743        1.0888224155
 O          4.7087124655        0.4326748297        2.3495382309
 O          3.1186972408        1.7641518668        1.0552112220
 C          5.2485284346        0.7994164739       -0.2135494084
 C          6.5097546157        0.2650823327       -0.0325874022
 C          7.4300129170        0.3577781674       -1.0647773950
 C          7.0748175154        0.9775158925       -2.2534623470
 C          5.8044643463        1.5090288435       -2.4202507285
 C          4.8789853983        1.4193932761       -1.3924902562
 H          3.8822522160        1.8242840553       -1.4764486939
 H          5.5307180426        1.9916341053       -3.3448123782
 H          7.7922151648        1.0493404184       -3.0556113419
 H          8.4189044077       -0.0525498452       -0.9391427472
 H          6.7406395867       -0.2004415828        0.9112655096
 H          3.2642965841       -0.8852898572       -0.3603396413
 H          2.5321214670       -0.3009080424        3.1252839129
 H          0.2756281907       -0.6983060678        4.0723694251
 H         -1.5230053976       -1.5916020750        2.6385351954
 H         -2.1007993464       -2.8330349826        0.6698013788
 C         -0.9666260709       -3.1530956900       -1.0868930712
 C         -1.9018802306       -3.4957299217       -2.2070776307
 C         -0.6759828854       -2.6787101670       -2.4777444776
 H          0.1397428226       -3.1446937100       -3.0115112364
 H         -0.7919909338       -1.6282276878       -2.6919098444
 H         -1.9335964209       -4.5146613173       -2.5620294392
 H         -2.8597981776       -2.9962938211       -2.2206886039
 H         -0.3442919958       -3.9606703065       -0.7128108790
