  62
        -98.93855383
 C         -2.0398133746       -1.3879990728        0.0736653710
 C         -2.3829357315       -0.3974023456       -0.8751109476
 C         -3.7387990182        0.1761173432       -0.7717018495
 C         -4.5681713823       -0.2370456603        0.2037158752
 C         -5.9980041456        0.1420398993        0.5280443503
 C         -6.6347724946        1.3900196369       -0.0781816232
 C         -6.0273740188        2.7118787602        0.3904535878
 H         -6.2813741941        2.8576578680        1.4434348285
 H         -6.4912592321        3.5209375184       -0.1780874743
 C         -4.5099070187        2.8234238877        0.2642520916
 H         -4.0318444087        2.0870634830        0.9139080278
 H         -4.2156536364        3.8110794760        0.6300526799
 C         -3.9575843445        2.6696340014       -1.1516139587
 H         -2.8959978630        2.9305143741       -1.1191240421
 H         -4.4544294960        3.3767650394       -1.8188186842
 C         -4.0702303550        1.2597269655       -1.7573328556
 H         -3.3350661779        1.1801112414       -2.5632772569
 H         -5.0518580477        1.0936991180       -2.1940648927
 H         -7.6841524662        1.3830553585        0.2289507966
 H         -6.6250158729        1.3304812285       -1.1625556308
 H         -6.6060990649       -0.7257824473        0.2492606411
 H         -6.0446056759        0.2117390771        1.6195216458
 O         -4.1942349690       -1.1971542595        1.0984986026
 C         -2.9453156764       -1.7848469546        1.0622127069
 O         -2.7610095728       -2.6426802101        1.9483124029
 H          0.2955517509        0.2739113879       -0.7743947548
 C          0.7606993074       -0.0305024712        0.1512794851
 C          0.3606160971       -1.2143538857        0.7548482930
 C          0.9585604033       -1.5846947765        1.9536487513
 C          1.9252392755       -0.7838402547        2.5371530598
 C          2.3163718035        0.3991483766        1.9367557152
 C          1.7241001593        0.7769252108        0.7381211438
 N          2.1184072266        1.9738472297        0.1155026882
 S          3.7609890232        2.2617579836       -0.0192067962
 O          4.2555213225        2.8229268408        1.2140399947
 O          3.9122888540        3.0932557387       -1.1927154695
 C          4.4953894837        0.6569885351       -0.2854642326
 C          4.0819138485       -0.0755854671       -1.3806475541
 C          4.6160499251       -1.3374734231       -1.5821779207
 C          5.5492558744       -1.8435401428       -0.6902291196
 C          5.9581476117       -1.0934209131        0.4010855302
 C          5.4255749164        0.1689366423        0.6091810607
 H          5.7111635723        0.7842390078        1.4468091885
 H          6.6854591392       -1.4883010062        1.0919801167
 H          5.9592817965       -2.8284444808       -0.8485607717
 H          4.2992379041       -1.9220387411       -2.4309103522
 H          3.3564128983        0.3452859937       -2.0584108518
 H          1.6380319753        2.1527778115       -0.7542653572
 H          3.0604575612        1.0404415354        2.3810335726
 H          2.3778881113       -1.0826674728        3.4701898969
 H          0.6487677364       -2.5005042232        2.4356679834
 C         -0.6896581332       -2.0885199555        0.1115823286
 H         -0.8340506787       -2.9649316730        0.7569587667
 C         -0.2329838279       -2.5697164489       -1.2529079411
 C          0.7980440158       -3.6532770775       -1.3317720589
 C         -0.6226434234       -3.9406208589       -1.7131854150
 H         -0.8607579569       -4.0851018135       -2.7564023655
 H         -1.2208566072       -4.5415530526       -1.0434645636
 H          1.1660637420       -4.0619110613       -0.4030703873
 H          1.5384289795       -3.6029116019       -2.1149034301
 H         -0.2024601561       -1.7867851020       -1.9985505214
 O         -1.6144552677        0.0095318532       -1.7885052751
