  62
        -98.94459452
 C         -1.6499727389       -1.4545708936        0.1973603364
 C         -1.8156813439       -0.3779890249        1.1086412346
 C         -3.0476840769        0.4064954288        0.9770377855
 C         -3.9228582881        0.1075469351       -0.0003681358
 C         -5.2475976661        0.7788887799       -0.2436738353
 C         -5.1589336322        2.0818087660       -1.0498554986
 C         -4.5790619459        3.2765471977       -0.2920294831
 H         -5.1104801020        3.3986891374        0.6522949036
 H         -4.7769759864        4.1653675049       -0.8942499126
 C         -3.0697012060        3.1841648822       -0.0282437857
 H         -2.5981298800        4.1375661894       -0.2769964534
 H         -2.6371322447        2.4254052817       -0.6850379655
 C         -2.7003066099        2.8592047772        1.4191426280
 H         -3.0404485738        3.6653411185        2.0730304235
 H         -1.6116579048        2.8032179853        1.4996880504
 C         -3.2797103958        1.5360501020        1.9358246044
 H         -4.3461623734        1.6460530910        2.1341645965
 H         -2.7752545065        1.2841896468        2.8722278943
 H         -6.1728947577        2.3372392058       -1.3659468394
 H         -4.5673647592        1.8971792215       -1.9493098493
 H         -5.7374347995        0.9741368560        0.7110258552
 H         -5.8553249287        0.0668870780       -0.8061922437
 O         -3.7016055276       -0.8920360522       -0.8911010460
 C         -2.5737919347       -1.6991341546       -0.8199882364
 O         -2.5355694247       -2.5695888881       -1.7105520057
 O         -0.9771275437       -0.1002173793        2.0084696689
 C         -0.4304778521       -2.3370654617        0.4032695308
 C          0.7080385217       -1.9672607832       -0.5165900827
 C          0.6109167519       -2.1086451517       -1.8972599068
 C          1.6812862282       -1.7805064775       -2.7086796477
 C          2.8581111788       -1.2932339309       -2.1659438464
 C          2.9624852440       -1.1421185299       -0.7889714605
 C          1.8924773730       -1.4895429468        0.0247365296
 H          1.9904593776       -1.3690527735        1.0931634985
 N          4.1423536788       -0.6506353748       -0.2022373009
 S          4.0316909515        0.5965899197        0.9122483731
 O          5.3808569041        1.1076964054        1.0167926454
 O          3.4388401937        0.1181314803        2.1331501172
 C          2.9917787298        1.7963203466        0.1015507074
 C          1.6199527512        1.7488383146        0.2489377128
 C          0.8441468723        2.6279921108       -0.4912643075
 C          1.4423505037        3.5361245016       -1.3501139460
 C          2.8225848588        3.5779202286       -1.4769962311
 C          3.6043216111        2.6943882631       -0.7522068695
 H          4.6804368398        2.6914797646       -0.8178688730
 H          3.2875820807        4.2892394354       -2.1403004245
 H          0.8275079655        4.2143500347       -1.9204434220
 H         -0.2288668401        2.5906732060       -0.3919411908
 H          1.1687385816        1.0447164976        0.9310033897
 H          4.8803580077       -0.4588866141       -0.8651372908
 H          3.6905506965       -1.0344967830       -2.8025162538
 H          1.5964722575       -1.8989550743       -3.7782739348
 H         -0.3119980230       -2.4701273590       -2.3239523327
 H         -0.0993335415       -2.1270590329        1.4302055718
 C         -0.7375705950       -3.8187891576        0.2983756047
 C          0.1923977297       -4.7964030141        0.9491062390
 C         -1.1738794390       -4.5659874837        1.5208092170
 H         -1.9180805304       -5.3406474903        1.4125923424
 H         -1.2527835543       -4.0118786922        2.4451607619
 H          0.3892830081       -5.7317484477        0.4482990701
 H          1.0406082366       -4.3981059927        1.4860459260
 H         -1.1881247356       -4.1015220307       -0.6437312473
