  62
        -98.94509622
 C         -2.5591643821       -0.0330686914        0.3777117453
 C         -2.2452013800        0.5867856819       -0.8558011547
 C         -1.9613053161        2.0271876178       -0.7950242854
 C         -2.0283879731        2.6637896747        0.3879327744
 C         -1.7901261116        4.1325644406        0.5892120537
 C         -0.3332127806        4.4401515193        0.9559428455
 C          0.6955693463        3.7935737838        0.0283987462
 H          1.6800444095        4.1473356439        0.3444751419
 H          0.6888237963        2.7110980573        0.1745017212
 C          0.4995188130        4.1003900938       -1.4626135760
 H          1.4756650790        4.3182162018       -1.9007708171
 H         -0.1176360655        4.9920114093       -1.5833056351
 C         -0.1020211197        2.9467587453       -2.2685290898
 H          0.0688143048        3.1448606116       -3.3303018888
 H          0.4194103789        2.0202328142       -2.0132320846
 C         -1.6074922488        2.7163210105       -2.0820873817
 H         -2.1423044762        3.6642059791       -2.1765078113
 H         -1.9465067967        2.0482611484       -2.8793435045
 H         -0.1473522723        4.0817443514        1.9713817647
 H         -0.2022312505        5.5245108917        0.9485088103
 H         -2.0636151221        4.6614007383       -0.3220856157
 H         -2.4361348885        4.4711065965        1.4018122241
 O         -2.3255709570        2.0321891530        1.5543222548
 C         -2.5699419734        0.6689548659        1.5806656993
 O         -2.7946639046        0.2077419797        2.7208102775
 H         -0.2507087582       -0.9545337260        0.6229344042
 C         -0.4074864388       -1.8501208869        0.0390601168
 C         -1.7023826743       -2.3037787214       -0.1760153594
 C         -1.8816098317       -3.4733329009       -0.9035094151
 C         -0.7883563896       -4.1548260939       -1.4112660887
 C          0.4960604735       -3.6818339153       -1.2210375541
 C          0.6854777400       -2.5070310942       -0.4988808239
 N          1.9738226997       -1.9675709801       -0.3508680770
 S          2.2661148646       -0.6281106140        0.6142778347
 O          2.0132891951       -0.9317002655        2.0082251501
 O          1.5686575803        0.5046693939        0.0639450329
 C          4.0187829356       -0.4485941389        0.3451302621
 C          4.9059634997       -1.0452017768        1.2209096733
 C          6.2662580430       -0.9259433365        0.9829719917
 C          6.7139184907       -0.2172630590       -0.1218210016
 C          5.8117004911        0.3787719069       -0.9904481465
 C          4.4504554658        0.2631272412       -0.7577819150
 H          3.7112580242        0.7150654435       -1.3988201862
 H          6.1627319416        0.9324655658       -1.8462166000
 H          7.7727988034       -0.1259452832       -0.3052496866
 H          6.9699748242       -1.3845940560        1.6587486568
 H          4.5121545379       -1.5756037966        2.0730654603
 H          2.7159091306       -2.6509734390       -0.3267030421
 H          1.3453204117       -4.2043334255       -1.6327994477
 H         -0.9410464262       -5.0652191237       -1.9709117947
 H         -2.8768863232       -3.8502750941       -1.0742255876
 C         -2.8483113833       -1.5217928763        0.4211346337
 H         -2.9234828849       -1.7870730489        1.4872263549
 C         -4.1770294603       -1.8120920014       -0.2492365395
 C         -5.0554167969       -2.9204092385        0.2462697172
 C         -5.4412249039       -1.4931726287        0.4889711027
 H         -6.2711198195       -1.0784127548       -0.0630119085
 H         -5.3398684111       -1.0962741093        1.4890128700
 H         -4.7059852686       -3.4979109979        1.0889268734
 H         -5.6263834439       -3.4867951367       -0.4740199060
 H         -4.1536985644       -1.6103616747       -1.3141062196
 O         -2.2210854271       -0.0284224705       -1.9542776149
