  62
        -98.93664677
 C         -2.4289310502       -1.1647411601       -0.0198326588
 C         -3.6107258823       -1.0109139389        0.7552989025
 C         -4.6264187027       -0.0939964469        0.2314906311
 C         -4.4063749759        0.5455492954       -0.9309208302
 C         -5.3542526209        1.4919217746       -1.6162925255
 C         -5.2908606451        2.9326975654       -1.0912184163
 C         -5.9004121596        3.1475976381        0.2947014269
 H         -5.9877910144        4.2258754018        0.4420096256
 H         -6.9089826998        2.7335331820        0.3147332335
 C         -5.0757696084        2.5574773113        1.4472380219
 H         -4.0598333886        2.3526705332        1.1008860197
 H         -4.9959640870        3.2924112544        2.2514219389
 C         -5.6584309248        1.2816061672        2.0551971831
 H         -6.6191187793        1.5049245170        2.5243991181
 H         -4.9762435936        0.9308963873        2.8336633447
 C         -5.8594125855        0.1389190447        1.0515419508
 H         -6.0641682671       -0.7769438708        1.6111757743
 H         -6.7102870164        0.3517337806        0.4046900263
 H         -4.2474854782        3.2571100443       -1.0852028763
 H         -5.8298310837        3.5620788676       -1.8032218894
 H         -5.0769811159        1.4981206794       -2.6726617393
 H         -6.3739177427        1.1158563967       -1.5266414905
 O         -3.2664051295        0.3741990605       -1.6469411574
 C         -2.2497105884       -0.4729449464       -1.2186126703
 O         -1.2816636618       -0.5028862122       -2.0014787619
 O         -3.8108181031       -1.6244577214        1.8376819989
 C         -1.3881104093       -2.1316672802        0.5345025500
 C         -0.0589700116       -1.4575633584        0.7638967603
 C          0.2347891143       -1.0050184648        2.0494400806
 C          1.4195457790       -0.3479449628        2.3229735107
 C          2.3487231550       -0.1246124456        1.3218850606
 C          2.0631155592       -0.5546514987        0.0343766263
 C          0.8743259998       -1.2223584092       -0.2345115186
 H          0.6672040212       -1.5123962675       -1.2499462371
 N          2.9910056634       -0.3477789880       -0.9991632495
 S          3.8049294424        1.1131642928       -1.0943815605
 O          3.0120749267        2.2117774725       -0.5914104083
 O          4.2401549138        1.2129296866       -2.4704943638
 C          5.2312785166        0.8620280546       -0.0558928956
 C          5.5834613460        1.8215276797        0.8730386935
 C          6.7030662136        1.6114094553        1.6632076029
 C          7.4476261438        0.4520120923        1.5105729738
 C          7.0830460813       -0.5002098190        0.5703496519
 C          5.9661662417       -0.2953971404       -0.2238394610
 H          5.6502898884       -1.0104677175       -0.9648879522
 H          7.6639997348       -1.4010033486        0.4547200999
 H          8.3165933072        0.2892681641        2.1283946014
 H          6.9879720145        2.3512247743        2.3939498704
 H          4.9696914422        2.7038408418        0.9627229395
 H          2.6519383892       -0.6325008577       -1.9069177423
 H          3.2716119206        0.3930469390        1.5252795320
 H          1.6244452446       -0.0065769422        3.3261932192
 H         -0.4869242519       -1.1651828352        2.8380728693
 H         -1.7813590376       -2.3723742206        1.5343075844
 C         -1.3929593156       -3.4612559506       -0.2153762321
 C         -0.9727432452       -3.6618064301       -1.6400027577
 C         -0.1550423673       -4.2461172133       -0.5284867920
 H         -0.1805282017       -5.3160076027       -0.3854202077
 H          0.7982903323       -3.7935007723       -0.3044380114
 H         -1.5694585392       -4.3317223225       -2.2434379102
 H         -0.6020345122       -2.8151319157       -2.1933272683
 H         -2.2596352566       -4.0450855853        0.0841276483
