  62
        -98.93835417
 C          2.4012871566        1.2204856076       -0.0565232727
 C          3.1362312056        0.4736754655        0.8911086817
 C          3.9999271083       -0.5972928479        0.3639621327
 C          4.0332619626       -0.8246402713       -0.9628659444
 C          4.8429598096       -1.8055843829       -1.7852771242
 C          5.5649299611       -2.9750344611       -1.1209412878
 C          4.6447811786       -4.0357519328       -0.5174147114
 H          4.1399942029       -4.5620457230       -1.3313901250
 H          5.2626650262       -4.7617825252        0.0152753495
 C          3.5669885280       -3.5127195016        0.4290073495
 H          2.9825504559       -4.3689552597        0.7773301180
 H          2.8835529688       -2.8600105409       -0.1187628307
 C          4.0825084273       -2.7710063201        1.6609984369
 H          4.7939086498       -3.4010797812        2.1982711308
 H          3.2283334663       -2.5955187666        2.3214581220
 C          4.7426631135       -1.4084406967        1.3865033144
 H          4.7177606354       -0.8294858223        2.3144615732
 H          5.7856800819       -1.5244386667        1.1024194502
 H          6.2666299861       -2.6109921986       -0.3763424484
 H          6.1564510568       -3.4592044726       -1.9026356917
 H          5.5839815082       -1.2013124803       -2.3200830868
 H          4.1568535442       -2.1933183518       -2.5449308030
 O          3.2909689401       -0.0854109174       -1.8386439884
 C          2.4558719007        0.9377083898       -1.4201120923
 O          1.8320693714        1.4997320331       -2.3386770662
 O          3.0764355299        0.6912203226        2.1327530843
 C          1.4946933607        2.3378067871        0.4233961716
 C          0.0568934014        2.0430675477        0.0699528240
 C         -0.8135907605        2.9970203582       -0.4402688911
 C         -2.1278244758        2.6670542809       -0.7245088273
 C         -2.6030649289        1.3874961809       -0.5064003906
 C         -1.7449635013        0.4278479464        0.0151685121
 C         -0.4317208073        0.7631769052        0.3041173570
 H          0.2334614098        0.0134103190        0.7165210076
 N         -2.2182949853       -0.8798504156        0.2341059635
 S         -3.5805259174       -1.0557222938        1.2040460844
 O         -3.6769898376        0.0101910817        2.1747020826
 O         -3.4980959101       -2.4002494972        1.7319370177
 C         -4.9408048188       -0.9639438647        0.0596513786
 C         -4.9686911748       -1.8584751279       -0.9923111060
 C         -6.0260466493       -1.8062403222       -1.8864020416
 C         -7.0332087558       -0.8684848970       -1.7123504187
 C         -6.9924176344        0.0199576544       -0.6487049101
 C         -5.9365947156       -0.0257251321        0.2484951397
 H         -5.8586738905        0.6482876771        1.0865348928
 H         -7.7765187995        0.7477601717       -0.5150339614
 H         -7.8547486806       -0.8303571685       -2.4101159260
 H         -6.0610203894       -2.4953360785       -2.7148322897
 H         -4.1685067946       -2.5732477087       -1.0893471316
 H         -1.4978488899       -1.5219657959        0.5320852269
 H         -3.6230502691        1.1249585451       -0.7348644451
 H         -2.7905960484        3.4180481791       -1.1263649824
 H         -0.4624542022        3.9999049501       -0.6188504117
 H          1.5785571263        2.3308688143        1.5211614457
 C          1.9849550681        3.6743759114       -0.0927668032
 C          1.7557332773        4.9238930474        0.7023857343
 C          3.1320380457        4.3398883064        0.6048071249
 H          3.8716122639        4.8523505821        0.0081867349
 H          3.5406157830        3.8415555708        1.4720312678
 H          1.5524196826        5.8422926433        0.1726433043
 H          1.2316915691        4.8300312188        1.6416337566
 H          1.9515524785        3.7387707323       -1.1744710583
