  62
        -98.93901425
 C         -2.4721920502       -1.0415457000        0.3542543806
 C         -2.6237369601        0.1621375198        1.0930211709
 C         -3.9008678301        0.8666533598        0.9427928112
 C         -4.8599052402        0.3427947100        0.1582933012
 C         -6.2356619802        0.9103262301       -0.0637965685
 C         -6.2989882703        1.9976573303       -1.1447981783
 C         -5.6824292303        3.3403503802       -0.7512494480
 H         -5.9861883403        4.0670088604       -1.5072593478
 H         -6.1015322702        3.6664727700        0.2010734321
 C         -4.1496935702        3.3307281802       -0.6646071282
 H         -3.7593932903        2.4526765203       -1.1846804084
 H         -3.7494288003        4.2085999803       -1.1768203680
 C         -3.5936347201        3.3467346099        0.7595496618
 H         -2.5025709801        3.2998642399        0.7022244417
 H         -3.8644737001        4.2852298597        1.2485941021
 C         -4.0715057700        2.1832689296        1.6383898016
 H         -5.1132078300        2.3305521396        1.9234468217
 H         -3.4591108499        2.1628545794        2.5433571415
 H         -5.8100466604        1.6226495706       -2.0467130484
 H         -7.3529807703        2.1610709404       -1.3806435281
 H         -6.8674655402        0.0763937102       -0.3767783187
 H         -6.6224565001        1.3066111898        0.8754910316
 O         -4.6844084803       -0.8168229498       -0.5239937491
 C         -3.4911302602       -1.5247597598       -0.4679764394
 O         -3.4933322503       -2.5436120797       -1.1863405397
 O         -1.7328021500        0.6189495896        1.8605809309
 C         -1.1567975301       -1.7795325201        0.5267810003
 C         -0.1724190003       -1.4979573998       -0.5841238297
 C         -0.4941010704       -1.7186289395       -1.9189051998
 C          0.4392834695       -1.4758732892       -2.9100630698
 C          1.7060429995       -1.0201472093       -2.5918813298
 C          2.0437546297       -0.8114291397       -1.2590172298
 C          1.1008721798       -1.0453153299       -0.2677806698
 H          1.3649117099       -0.8575113602        0.7618504503
 N          3.3472594197       -0.4140446698       -0.9171514098
 S          3.6373307799        0.5295440799        0.4494144304
 O          3.4535857400       -0.2822061104        1.6257802902
 O          2.8760882199        1.7575864799        0.3842133408
 C          5.3745237998        0.8589028600        0.2199580003
 C          5.7888020198        2.0965680501       -0.2333043294
 C          7.1432263998        2.3203448401       -0.4272408895
 C          8.0544107698        1.3076674500       -0.1686890299
 C          7.6233328298        0.0703652199        0.2870462699
 C          6.2713719099       -0.1592356901        0.4847615899
 H          5.8907795699       -1.1003804602        0.8457272698
 H          8.3348726599       -0.7138124401        0.4894377996
 H          9.1074843398        1.4844164701       -0.3206144899
 H          7.4815922797        3.2820537302       -0.7778461593
 H          5.0450207098        2.8558041501       -0.4146518092
 H          3.8686123896       -0.0681883696       -1.7115681798
 H          2.4320268895       -0.8338556991       -3.3687338998
 H          0.1761657194       -1.6430181990       -3.9437885698
 H         -1.4796368604       -2.0794201294       -2.1697263698
 H         -0.7244344901       -1.3764214003        1.4537439403
 C         -1.3202159201       -3.2793775901        0.6911962999
 C         -0.2356431801       -4.0541555503        1.3747197996
 C         -1.5544161400       -3.8480238805        2.0566536198
 H         -2.2239435900       -4.6891249205        2.1554490997
 H         -1.5973472999       -3.1555679707        2.8851344300
 H          0.0036532999       -5.0394272102        1.0054087594
 H          0.6173028300       -3.5020741904        1.7413878697
 H         -1.8309664302       -3.7477941099       -0.1399675601
