  62
        -98.93443665
 C         -2.4145952005       -1.0772206598        0.0289501715
 C         -2.5559185805        0.3279334602        0.0855850012
 C         -3.9145246904        0.8404344603        0.3471569211
 C         -4.9287270005       -0.0282008296        0.5197021513
 C         -6.3907328005        0.1953487305        0.8475236913
 C         -7.0191983704        1.5801512805        0.7178237110
 C         -7.1278298104        2.0993980902       -0.7153169191
 H         -7.8723011804        1.5007396601       -1.2461066990
 H         -7.4920658504        3.1283655002       -0.6799201294
 C         -5.8377302504        2.0568103500       -1.5304550791
 H         -5.5156816405        1.0209597099       -1.6554414689
 H         -6.0590933704        2.4467240297       -2.5277319692
 C         -4.6772096304        2.8711353800       -0.9617020293
 H         -4.9966485004        3.9022709701       -0.7982337695
 H         -3.8833200104        2.8826816499       -1.7136733893
 C         -4.0664892404        2.3343139603        0.3446737808
 H         -4.6336717304        2.6649332605        1.2115622107
 H         -3.0560024204        2.7434262603        0.4384053607
 H         -6.4909373804        2.2938327706        1.3430001608
 H         -8.0338875204        1.4993881906        1.1170546010
 H         -6.9463038405       -0.5096069096        0.2210530414
 H         -6.5170486505       -0.1464186793        1.8808012413
 O         -4.7372325605       -1.3796861596        0.4648069016
 C         -3.4966523105       -1.9351272197        0.2130646117
 O         -3.4860879905       -3.1825557197        0.1854841320
 O         -1.5923686704        1.1255539502       -0.0639279890
 C         -1.0593657505       -1.6967976599       -0.2516859984
 C         -0.0390390105       -1.2527673597        0.7690649015
 C         -0.3961254005       -1.1958982294        2.1135470915
 C          0.5186463995       -0.8005020892        3.0698547414
 C          1.8105995595       -0.4623802593        2.7085255014
 C          2.1862480895       -0.5398088296        1.3725707614
 C          1.2631554495       -0.9352861798        0.4139738315
 H          1.5757037695       -0.9795640400       -0.6151322585
 N          3.5142507595       -0.2677584997        0.9995393613
 S          3.8821296895        0.4313192999       -0.4900277788
 O          3.2261757696        1.7131170999       -0.6271185291
 O          3.6414838295       -0.5279860103       -1.5372428286
 C          5.6391185595        0.6532311599       -0.2777357789
 C          6.4620119395       -0.4450073701       -0.4424717387
 C          7.8259269795       -0.2955568501       -0.2495635787
 C          8.3419605996        0.9426998799        0.1032772510
 C          7.5043295396        2.0361835300        0.2627383008
 C          6.1386057596        1.8930162000        0.0725449208
 H          5.4506566396        2.7166661600        0.1778329407
 H          7.9090428196        2.9980114800        0.5336938306
 H          9.4040510796        1.0567091899        0.2524388810
 H          8.4806627195       -1.1427971202       -0.3749623085
 H          6.0164311895       -1.3844660402       -0.7248129385
 H          4.0333252495        0.1900283404        1.7370265612
 H          2.5230673895       -0.1470064592        3.4556694413
 H          0.2222586795       -0.7495336690        4.1069595014
 H         -1.4072157005       -1.4561750593        2.3972793916
 H         -1.1951655905       -2.7839302099       -0.1443757081
 C         -0.6399309405       -1.4000960202       -1.6772879984
 C          0.1913902195       -2.3823085004       -2.4443701482
 C         -1.2516657105       -2.1858651504       -2.7965868482
 H         -1.4965911705       -1.6723154806       -3.7142027884
 H         -1.9536797006       -2.9622110004       -2.5278934481
 H          0.9479412295       -2.0016221106       -3.1145376083
 H          0.4692979494       -3.2980595403       -1.9444996480
 H         -0.4633368405       -0.3429295903       -1.8465097786
