  62
        -98.93926134
 C         -2.5476818984       -0.1513869436        0.0260867680
 C         -2.2545646147       -1.1514794149       -0.9267691157
 C         -1.6584476902       -2.4004205279       -0.4212968911
 C         -1.4333389406       -2.5321532644        0.8995622861
 C         -0.8620531696       -3.6759698049        1.7124631137
 C         -0.2850754572       -4.9067278713        1.0206164889
 C          1.0569964374       -4.6693816841        0.3244476049
 H          1.8299424780       -4.5869527534        1.0924709488
 H          1.2883909788       -5.5417073284       -0.2905102205
 C          1.1473521800       -3.4134597981       -0.5396695241
 H          2.1779683555       -3.3215603843       -0.8961486186
 H          0.9493136024       -2.5250540316        0.0642525060
 C          0.2388133114       -3.3910165140       -1.7663579775
 H          0.4704328353       -4.2400816073       -2.4140643381
 H          0.4639601959       -2.4728373557       -2.3185381913
 C         -1.2677856384       -3.4027145223       -1.4700239264
 H         -1.7924244244       -3.1063400077       -2.3838062227
 H         -1.6067064655       -4.4015341141       -1.2067978663
 H         -0.1228938915       -5.6576200135        1.7985455751
 H         -1.0151889075       -5.3215259222        0.3315896473
 H         -0.0951816965       -3.2303889601        2.3544859298
 H         -1.6731662929       -3.9951936875        2.3761560313
 O         -1.7699432605       -1.5509351594        1.7877645190
 C         -2.2713956427       -0.3285448600        1.3801760041
 O         -2.4446600530        0.4905012565        2.3037143114
 O         -2.4803283757       -1.0062920033       -2.1612220444
 C         -3.0253492267        1.2065686940       -0.4525058924
 C         -1.9601710878        2.2400247080       -0.1677660200
 C         -2.2366970928        3.5490061686        0.2030900408
 C         -1.2032027998        4.4409383459        0.4408080547
 C          0.1177986974        4.0478328239        0.3368633618
 C          0.4046680525        2.7359522690       -0.0296931560
 C         -0.6304844844        1.8622132846       -0.3079313795
 H         -0.3946299338        0.8568488269       -0.6246939488
 N          1.7337556635        2.2775841443       -0.0732804062
 S          2.0888178306        0.6629737430       -0.3504109494
 O          1.8190556317        0.2900703238       -1.7234961495
 O          1.4572142199       -0.1257208685        0.6767158695
 C          3.8511318426        0.7057499349       -0.0842772337
 C          4.7078865302        0.7249635187       -1.1680957931
 C          6.0743423311        0.7874535132       -0.9428840829
 C          6.5581759799        0.8315764508        0.3557419674
 C          5.6861589983        0.8096075501        1.4343962088
 C          4.3193422382        0.7465820760        1.2153287939
 H          3.6028032922        0.7186710510        2.0200826621
 H          6.0655124975        0.8409640110        2.4430461025
 H          7.6215602665        0.8805305602        0.5290361243
 H          6.7542678597        0.8013133740       -1.7793955579
 H          4.2853427313        0.6802251482       -2.1589894338
 H          2.4008674998        2.9208069691       -0.4714433853
 H          0.9202456584        4.7381785523        0.5433524794
 H         -1.4328595773        5.4570835736        0.7236307039
 H         -3.2601258046        3.8706658264        0.3082897851
 H         -3.1249763579        1.1132261269       -1.5454265386
 C         -4.3762519767        1.5581270583        0.1333923521
 C         -5.3467748911        2.3929095522       -0.6463641319
 C         -5.6034057338        0.9295448908       -0.4537866856
 H         -6.3955332897        0.6245361521        0.2131217092
 H         -5.4640397058        0.2688673312       -1.2972486746
 H         -5.9686366222        3.0945131609       -0.1111498567
 H         -5.0443709909        2.7267283085       -1.6275602933
 H         -4.3411460362        1.6789085491        1.2100641748
