  62
        -98.93629385
 C          2.0079085101        0.1722563014       -0.9337940995
 C          2.8856856702       -0.8703580487       -0.5514528601
 C          4.2982563801       -0.4961667587       -0.3504125398
 C          4.6822918000        0.7791857314       -0.5223191891
 C          6.0653561199        1.3707825715       -0.4120565787
 C          6.9434428800        0.9137573710        0.7608877811
 C          6.1818480799        0.5845185102        2.0530206609
 H          6.6461389299        1.1192373998        2.8838159812
 H          5.1500849499        0.9326734901        1.9784063410
 C          6.1940754201       -0.9085641600        2.3897419700
 H          7.1983711601       -1.2993133198        2.2117353198
 H          5.9804210501       -1.0296028706        3.4544611100
 C          5.1823779602       -1.7607877097        1.6249924795
 H          4.1701579502       -1.5262137600        1.9649536196
 H          5.3693591403       -2.8082529198        1.8732149589
 C          5.2087238003       -1.6044857388        0.0956675896
 H          6.2229504702       -1.4619278185       -0.2688270303
 H          4.8061702204       -2.5214196786       -0.3427289509
 H          7.5275348301        0.0444240912        0.4620588106
 H          7.6551739699        1.7185727709        0.9527209216
 H          6.5928808800        1.1761227221       -1.3505592888
 H          5.9067924698        2.4503028515       -0.3516418081
 O          3.8015707699        1.7568344516       -0.8800495186
 C          2.4642759000        1.4832519015       -1.0946798388
 O          1.7886155699        2.4790814216       -1.4274029982
 H         -1.5744749901        1.5287470108       -0.5725342889
 C         -1.3610556100        0.7992843304        0.1942635307
 C         -0.3002560499       -0.0819525594        0.0430721503
 C         -0.0475351098       -1.0045554399        1.0536143497
 C         -0.8349058899       -1.0316207907        2.1897347597
 C         -1.9032227600       -0.1624257809        2.3292953302
 C         -2.1701061200        0.7560950897        1.3221002107
 N         -3.2598268701        1.6438458795        1.4204339111
 S         -4.4180769401        1.6068168901        0.2112486011
 O         -3.8340513901        2.0076263408       -1.0422769187
 O         -5.5041956402        2.4210182697        0.7080285015
 C         -4.9266443799       -0.1024164400        0.1405615001
 C         -6.0550863599       -0.4913809305        0.8359856398
 C         -6.4132051598       -1.8298240005        0.8399564091
 C         -5.6325195396       -2.7543721700        0.1627182386
 C         -4.5006640996       -2.3484784295       -0.5274175212
 C         -4.1413674898       -1.0099465595       -0.5429542604
 H         -3.2692185998       -0.6636239391       -1.0728471902
 H         -3.8910522395       -3.0664839592       -1.0520447016
 H         -5.9072268895       -3.7973316001        0.1709349380
 H         -7.2951134797       -2.1475782609        1.3724731688
 H         -6.6324671900        0.2621374092        1.3469856502
 H         -3.7157738602        1.6279040189        2.3223040311
 H         -2.5233505700       -0.1907880814        3.2126469401
 H         -0.6223919398       -1.7458056011        2.9706577493
 H          0.7737923402       -1.6949147798        0.9395142094
 C          0.5293519501       -0.0373443486       -1.2179988297
 H          0.2139090201        0.8478214217       -1.7878292092
 C          0.2535846203       -1.2674674282       -2.0630021304
 C         -0.9652111697       -1.2898146078       -2.9333952104
 C          0.3965113903       -1.1784450473       -3.5507477003
 H          0.7968143004       -2.0289731970       -4.0815391508
 H          0.6905930902       -0.2258492770       -3.9681359698
 H         -1.5037690896       -2.2182795478       -3.0457883110
 H         -1.5936209798       -0.4103937779       -2.9429773800
 H          0.5565577804       -2.1912413884       -1.5883372809
 O          2.5366571403       -2.0683344289       -0.3861342308
