  62
        -98.94947196
 C         -1.0904406744       -1.7227903372        0.1196727977
 C         -1.7089893905       -0.9292664478        1.1145303104
 C         -2.8382861653       -0.1051374372        0.6700779245
 C         -3.2120849927       -0.1292592561       -0.6221955624
 C         -4.3430341907        0.6548196529       -1.2303676877
 C         -3.9705230205        2.0999231600       -1.5900677438
 C         -3.8521399097        3.0565459177       -0.4027405278
 H         -3.8328498189        4.0692974483       -0.8104030271
 H         -4.7415785616        2.9724320666        0.2233574756
 C         -2.5934834337        2.8500711991        0.4511152753
 H         -1.8537860419        2.2903679676       -0.1275839689
 H         -2.1424945826        3.8211098192        0.6721755728
 C         -2.8413353791        2.1528514411        1.7891056831
 H         -3.4669965054        2.7903203328        2.4184241167
 H         -1.8797446503        2.0271954122        2.2924939746
 C         -3.5101176344        0.7765235880        1.6803851773
 H         -3.4309384820        0.2821293294        2.6521426053
 H         -4.5653066303        0.8929710212        1.4332034075
 H         -4.7453413035        2.4796113622       -2.2605987903
 H         -3.0261093594        2.0922815205       -2.1408472743
 H         -5.1988116194        0.6550854724       -0.5540359881
 H         -4.6240982014        0.1325535836       -2.1475286338
 O         -2.5989180409       -0.9125441721       -1.5483227828
 C         -1.5175025656       -1.7139388490       -1.2090653871
 O         -1.0423667334       -2.3626469042       -2.1608696440
 O         -1.3352955659       -0.9104692627        2.3189010018
 C          0.1075598018       -2.5678086271        0.5011661945
 C          1.3629345344       -2.1311391720       -0.2189044353
 C          2.4678267155       -2.9671925887       -0.3460773693
 C          3.6138459387       -2.5220638565       -0.9806847353
 C          3.6952206059       -1.2372665913       -1.4884250016
 C          2.5973413398       -0.3939611406       -1.3667999849
 C          1.4506492501       -0.8476003656       -0.7341906463
 H          0.5977806505       -0.1918770942       -0.6798463845
 N          2.6201818453        0.9098976391       -1.8782964786
 S          1.7126430388        2.1278039040       -1.1868608743
 O          0.3094304738        1.9363359544       -1.4555056814
 O          2.2969446031        3.3410578829       -1.7177373824
 C          2.0520301429        2.0162370916        0.5601642714
 C          3.3134041580        2.3787861054        0.9928734674
 C          3.6244381537        2.2524470312        2.3364448518
 C          2.6779757459        1.7568598484        3.2214697515
 C          1.4156796666        1.4016849121        2.7735117109
 C          1.0977164438        1.5356943989        1.4314901046
 H          0.1221260869        1.2650603922        1.0607310751
 H          0.6728609462        1.0034086814        3.4471219894
 H          2.9230634526        1.6483125144        4.2661857112
 H          4.6033394791        2.5342572083        2.6893434046
 H          4.0189487238        2.7664237590        0.2761466046
 H          3.5137274245        1.2339438881       -2.2154386528
 H          4.5897979451       -0.8940341851       -1.9844209804
 H          4.4606788939       -3.1841426781       -1.0782449891
 H          2.4254509789       -3.9702793110        0.0463470663
 H          0.2594823534       -2.3866816208        1.5769892167
 C         -0.1877806802       -4.0421030732        0.2970010526
 C          0.3195246834       -5.0672425280        1.2656647228
 C         -1.1384776313       -4.7247394476        1.2333253426
 H         -1.8343516227       -5.4440504921        0.8284784700
 H         -1.5435118499       -4.1339739766        2.0421447816
 H          0.6265572000       -6.0288749901        0.8827543433
 H          0.8963484650       -4.7202177543        2.1097525010
 H         -0.2425432052       -4.3106891897       -0.7519414940
