  62
        -98.93935931
 C         -2.6928466097       -1.1603484413       -0.0736852698
 C         -2.8493061398       -0.0452578413       -0.9314710398
 C         -4.2026442598        0.5258347585       -0.9932630299
 C         -5.1912311098       -0.0401659316       -0.2768580499
 C         -6.6019221999        0.4676622883       -0.2099668800
 C         -6.7824094600        1.4514229683        0.9544878800
 C         -5.7176718001        2.5471599284        1.0067709400
 H         -5.9640239503        3.2003283784        1.8467560099
 H         -4.7486210601        2.0931984285        1.2270209200
 C         -5.6037797102        3.3833237784       -0.2755120601
 H         -5.5358989003        4.4378782084       -0.0001869501
 H         -6.5053515301        3.2632226583       -0.8772771001
 C         -4.3762777901        3.0670827185       -1.1323033100
 H         -3.4777374901        3.0934591486       -0.5103332300
 H         -4.2759636202        3.8536136585       -1.8849637600
 C         -4.4074885899        1.7252993485       -1.8751549300
 H         -5.3393569399        1.6368772483       -2.4373109900
 H         -3.5748515299        1.7195854285       -2.5846073899
 H         -7.7713657001        1.9059099982        0.8726373199
 H         -6.7427420900        0.8903564783        1.8911134600
 H         -6.8535356699        0.9519801582       -1.1513468000
 H         -7.2669846398       -0.3845409118       -0.0603563400
 O         -5.0053922797       -1.1261261815        0.5172874901
 C         -3.7536937997       -1.7034995714        0.6498834202
 O         -3.7139185196       -2.6779960913        1.4288757202
 O         -1.9103074098        0.4463498387       -1.6101337298
 C         -1.3323807196       -1.8159923411        0.0689698403
 C         -0.2996653498       -0.8119124010        0.5219724503
 C         -0.6135539899        0.0709712990        1.5515628303
 C          0.3140198300        0.9881519191        2.0062991303
 C          1.5814228200        1.0432998192        1.4523582603
 C          1.9135054401        0.1535042492        0.4416838604
 C          0.9765018503       -0.7650778409       -0.0165666796
 H          1.2520727904       -1.4472407209       -0.8064544196
 N          3.2067357802        0.1956138794       -0.1278949496
 S          4.5137699102       -0.1986465604        0.8687143605
 O          4.6531592603       -1.6386460104        0.9481915406
 O          4.3811958600        0.4980771996        2.1213507305
 C          5.8656073101        0.4867385297       -0.0680246395
 C          6.7588206602       -0.3508115103       -0.7065300394
 C          7.7953536602        0.2075758398       -1.4385065294
 C          7.9175955101        1.5860226798       -1.5206614094
 C          7.0111915299        2.4140888598       -0.8746860095
 C          5.9739799400        1.8621084497       -0.1406853995
 H          5.2512088899        2.4671849196        0.3810169304
 H          7.1103055198        3.4856181398       -0.9406321395
 H          8.7250934200        2.0182645599       -2.0903305394
 H          8.5020725403       -0.4334951501       -1.9405594693
 H          6.6284174004       -1.4167279103       -0.6107948894
 H          3.2629139803       -0.3932196007       -0.9496495996
 H          2.3143875599        1.7477329493        1.8081616203
 H          0.0479135399        1.6710316591        2.7994593002
 H         -1.6019991799        0.0297991589        1.9901797402
 H         -1.4387177896       -2.5696463711        0.8639230303
 C         -0.9668043395       -2.5217391911       -1.2213234796
 C         -0.1100093694       -3.7511675710       -1.1991758896
 C         -1.5727365993       -3.8620154912       -1.5052912096
 H         -1.8734788193       -4.0889718413       -2.5170185296
 H         -2.2254052593       -4.2785287613       -0.7517196096
 H          0.5924373907       -3.9068286410       -2.0045868295
 H          0.2360045006       -4.1042063710       -0.2390252495
 H         -0.8592341095       -1.8344612312       -2.0530594597
