  62
        -98.94652170
 C         -1.4921867461       -1.4194475604       -0.4272732155
 C         -2.7708605871       -1.3677646656        0.1816501077
 C         -3.5820300634       -0.1814786390       -0.1193051562
 C         -3.0758340492        0.7740210600       -0.9206749896
 C         -3.7737698394        2.0578125301       -1.2652666722
 C         -3.4346591423        3.1748938164       -0.2678814916
 C         -3.5529276298        2.7546812666        1.1967157920
 H         -2.8095146213        1.9826897633        1.4097299192
 H         -3.2994279249        3.6244580672        1.8069770956
 C         -4.9424876436        2.2394573433        1.5964028174
 H         -5.2247506008        2.6924607191        2.5491897685
 H         -5.6808745118        2.5538287240        0.8577500631
 C         -5.0267706207        0.7234469832        1.7809336249
 H         -5.9796372798        0.4919134581        2.2644933223
 H         -4.2310614009        0.3902426497        2.4520923491
 C         -4.9521479792       -0.1076519537        0.4938838849
 H         -5.2226526822       -1.1367799309        0.7479061726
 H         -5.6786849659        0.2688487209       -0.2291562936
 H         -4.0985752908        4.0200908997       -0.4585948485
 H         -2.4091895932        3.5038667114       -0.4458943322
 H         -4.8484114539        1.8849367867       -1.2764549810
 H         -3.4564160991        2.3635738175       -2.2634932018
 O         -1.8456845505        0.6908223803       -1.4851942000
 C         -1.0202318753       -0.4007077316       -1.2567187324
 O          0.0731060227       -0.3421082283       -1.8483332412
 O         -3.2138419557       -2.2737220718        0.9373024966
 C         -0.6004049091       -2.6115682154       -0.1178901729
 C          0.5578013010       -2.0990041733        0.6995412791
 C          0.3827600134       -1.8789481615        2.0630799635
 C          1.3891844171       -1.3139038772        2.8239172244
 C          2.5864049133       -0.9398056865        2.2376410254
 C          2.7647439841       -1.1453585748        0.8763971805
 C          1.7649471660       -1.7408060735        0.1194147871
 H          1.9180215969       -1.8867668901       -0.9377661566
 N          3.9675417754       -0.7311910612        0.2627751624
 S          4.2921253867        0.9123988711        0.3047036525
 O          5.3933676358        1.1087979290       -0.6107583220
 O          4.5267612914        1.3037831272        1.6721714166
 C          2.8271489127        1.7160250067       -0.3168751158
 C          2.7573581943        2.0193754474       -1.6610304194
 C          1.6049087367        2.6037331500       -2.1574807606
 C          0.5424539135        2.8619633657       -1.3071722385
 C          0.6247489516        2.5445610324        0.0388437861
 C          1.7773494046        1.9656386887        0.5433825023
 H          1.8764108390        1.7077010088        1.5855090068
 H         -0.2089790636        2.7352680138        0.6971976421
 H         -0.3600907737        3.3020007603       -1.7015564277
 H          1.5316254705        2.8438305277       -3.2060319232
 H          3.6062791162        1.8002120285       -2.2889739460
 H          4.0418570758       -1.0483394784       -0.6943069340
 H          3.3722743346       -0.4709664406        2.8073510476
 H          1.2403842671       -1.1557919863        3.8815392372
 H         -0.5620455760       -2.1449534573        2.5166051282
 H         -1.2057172329       -3.2736144872        0.5153571329
 C         -0.1928086389       -3.3671532728       -1.3644878507
 C          0.4091317443       -4.7330150433       -1.2283394933
 C         -0.9762562382       -4.5755255460       -1.7772066756
 H         -1.1374353785       -4.7493565875       -2.8305975809
 H         -1.8094429254       -4.8679349490       -1.1551340968
 H          1.2008903724       -5.0190513455       -1.9038462076
 H          0.5175372514       -5.1316321993       -0.2309568822
 H          0.1762621692       -2.7264596518       -2.1559480173
