  62
        -98.94108619
 C          2.1998684813        0.9993842966        0.6702635629
 C          2.1959343724        0.1058562425       -0.4300197326
 C          3.0781684042       -1.0638941648       -0.3017026250
 C          3.7627956318       -1.2716243375        0.8364796201
 C          4.6874632529       -2.4241209334        1.1200190697
 C          6.1120893039       -2.2259648634        0.5839850760
 C          6.2577188518       -2.3347755508       -0.9344390627
 H          7.3263919221       -2.3944148932       -1.1496171829
 H          5.8043938887       -3.2659952847       -1.2756705709
 C          5.6627625050       -1.1545228071       -1.7152344429
 H          6.3720833211       -0.8283150680       -2.4789996313
 H          5.5103771516       -0.3099603540       -1.0392484797
 C          4.3444524658       -1.4641975397       -2.4249150735
 H          4.5116906091       -2.2178988975       -3.1974738948
 H          3.9958273348       -0.5519138615       -2.9157723518
 C          3.2281462119       -1.9581624354       -1.4950709305
 H          2.2838432789       -1.9373647558       -2.0455510424
 H          3.4252345867       -2.9832011351       -1.1810846185
 H          6.7414376886       -2.9915231190        1.0435337543
 H          6.4777711729       -1.2516848001        0.9165142249
 H          4.2659663531       -3.3418677376        0.7085735032
 H          4.7384478546       -2.5217238589        2.2067108215
 O          3.6679119502       -0.4368263104        1.9061977271
 C          2.9016768157        0.7167273149        1.8445563740
 O          2.9131065659        1.3915793152        2.8940451400
 O          1.5037094251        0.2625341762       -1.4677899017
 C          1.3719531370        2.2733914445        0.6665098272
 C         -0.0231479902        1.9767309535        0.1725401545
 C         -0.6055939046        2.5945867222       -0.9254430032
 C         -1.8890312672        2.2563379827       -1.3179384664
 C         -2.6185554799        1.3065945490       -0.6271725054
 C         -2.0432019561        0.6775789273        0.4693194281
 C         -0.7601056295        1.0222138014        0.8635413710
 H         -0.3084821852        0.5274977998        1.7161279564
 N         -2.7783863945       -0.2819316997        1.1884371431
 S         -3.5489894804       -1.5068128624        0.3357633836
 O         -3.6881291190       -2.5899890543        1.2859292936
 O         -2.8649728407       -1.8188142270       -0.8973612261
 C         -5.1603494150       -0.8307854890       -0.0081284431
 C         -5.6215115676       -0.7765262215       -1.3088149839
 C         -6.8812668275       -0.2511290207       -1.5516602409
 C         -7.6535446641        0.2065695676       -0.4951215145
 C         -7.1770668897        0.1416953297        0.8059094727
 C         -5.9191865861       -0.3831349392        1.0555727110
 H         -5.5134021477       -0.4553104812        2.0507925455
 H         -7.7806594273        0.4981176138        1.6249940687
 H         -8.6326845270        0.6161906123       -0.6868157594
 H         -7.2533021755       -0.2006104041       -2.5623590505
 H         -4.9828137312       -1.1391872670       -2.0986654259
 H         -2.2770124163       -0.6658390261        1.9765707880
 H         -3.6155639939        1.0375016822       -0.9352550057
 H         -2.3272901847        2.7382527469       -2.1786146104
 H         -0.0455507511        3.3200238292       -1.4919271314
 H          1.2941674248        2.5628920118        1.7278802931
 C          2.0334896244        3.4406885940       -0.0510714935
 C          3.5264690900        3.5485156188       -0.1312084498
 C          2.7268359395        3.2849737689       -1.3697831535
 H          2.6320885795        4.0798830550       -2.0951199542
 H          2.7567013052        2.2990543567       -1.8052148177
 H          3.9779120575        4.5210035153       -0.0041695355
 H          4.1095658880        2.7398513811        0.2857626046
 H          1.4957740348        4.3698124987        0.1103691912
