  62
        -98.94379720
 C         -1.6463734807       -1.4266526748        0.4093985084
 C         -1.7621940000       -0.1782726537        1.0774009744
 C         -3.0285705250        0.5398206539        0.9035389904
 C         -4.0144803459       -0.0179682540        0.1784485767
 C         -5.3827057342        0.5633943555       -0.0547032605
 C         -5.4484275161        1.5679768084       -1.2131623250
 C         -4.7878329051        2.9194936483       -0.9390054631
 H         -5.0939927392        3.5940522325       -1.7410777996
 H         -5.1745380552        3.3283482322       -0.0050127936
 C         -3.2542724407        2.8733902447       -0.8894770242
 H         -2.8465458356        3.6975337917       -1.4787488451
 H         -2.9027712881        1.9474070610       -1.3505610445
 C         -2.6586005234        2.9819777086        0.5142871702
 H         -2.8826101710        3.9656784633        0.9327575104
 H         -1.5742049882        2.8837748849        0.4285780309
 C         -3.1514359484        1.9108485606        1.4958743029
 H         -2.5227096554        1.9442880784        2.3889679081
 H         -4.1825706917        2.1097545705        1.7874775240
 H         -6.5042883322        1.7407569923       -1.4343793062
 H         -4.9943058597        1.1126815035       -2.0963321391
 H         -5.7390506564        1.0375671949        0.8603533157
 H         -6.0405551777       -0.2761930526       -0.2897400497
 O         -3.8768391354       -1.2258825111       -0.4253010199
 C         -2.6871738597       -1.9413053757       -0.3640696439
 O         -2.7148081172       -2.9946045929       -1.0310345531
 O         -0.8490991337        0.3074460260        1.7957017211
 C         -0.3243592724       -2.1548779059        0.5760923202
 C          0.6234165786       -1.8489879097       -0.5594282140
 C          0.2872041914       -2.1283843642       -1.8799191912
 C          1.1786777675       -1.8504038825       -2.8995872594
 C          2.4141006908       -1.2900333145       -2.6257296032
 C          2.7623857850       -1.0126494832       -1.3085664545
 C          1.8643586117       -1.2921927269       -0.2869466140
 H          2.1471347132       -1.0797102057        0.7320771338
 N          4.0208844540       -0.4805612483       -1.0072960919
 S          4.3051629763        0.4799706624        0.3250076779
 O          5.6011606505        1.0653313177        0.0579773995
 O          4.2015549384       -0.2999422977        1.5324996599
 C          3.0618918610        1.7570527773        0.2907554531
 C          2.1306119405        1.8498994600        1.3031558125
 C          1.1897910755        2.8662635855        1.2585951954
 C          1.1941076474        3.7646839266        0.2036615755
 C          2.1367323185        3.6580458923       -0.8085747074
 C          3.0814201900        2.6468279494       -0.7663980126
 H          3.8401300941        2.5460148192       -1.5253697152
 H          2.1370024326        4.3608460394       -1.6262306710
 H          0.4604674134        4.5552859787        0.1716027752
 H          0.4531282805        2.9338838429        2.0427585384
 H          2.1440430618        1.1326153950        2.1074186212
 H          4.5838501384       -0.2175014943       -1.8016017290
 H          3.1083955514       -1.0768957284       -3.4238631937
 H          0.9080070722       -2.0711551567       -3.9211628620
 H         -0.6763731275       -2.5639201994       -2.0961197098
 H          0.1187420930       -1.7404482577        1.4924521010
 C         -0.4607095247       -3.6546041665        0.7527102587
 C          0.6590849421       -4.4093631597        1.4015319034
 C         -0.6381431376       -4.2197859865        2.1282332110
 H         -1.2902883953       -5.0709011110        2.2545146996
 H         -0.6617177438       -3.5257884896        2.9559997471
 H          0.9005672697       -5.3929375754        1.0288034160
 H          1.5169285531       -3.8445875557        1.7360944894
 H         -0.9926771544       -4.1381777595       -0.0559010535
