  62
        -98.94515372
 C         -1.5328235203       -0.8062714481        0.0542281867
 C         -2.8086068957       -1.4132249889        0.1214774327
 C         -3.9051395462       -0.5433694456        0.5624605815
 C         -3.6501599950        0.7353409373        0.8953031229
 C         -4.6581921296        1.7382846034        1.3878761827
 C         -5.4368033479        2.4426772588        0.2684142646
 C         -6.4795751312        1.5785504546       -0.4417387100
 H         -7.1325832408        1.1160965923        0.2991236022
 H         -7.0953746295        2.2492918535       -1.0443265930
 C         -5.8886124037        0.4966897399       -1.3566155940
 H         -6.4166000315        0.4998879284       -2.3129206760
 H         -4.8424472315        0.7292594130       -1.5681249725
 C         -5.9749022538       -0.9233179676       -0.7970591440
 H         -5.4957890966       -1.6013168473       -1.5080880847
 H         -7.0225762805       -1.2185071908       -0.7049694686
 C         -5.2938897670       -1.1074356498        0.5655032905
 H         -5.8922644374       -0.6453260679        1.3505227099
 H         -5.2172429914       -2.1786145367        0.7683811691
 H         -5.9491941492        3.2974890688        0.7158653966
 H         -4.7239159442        2.8282746431       -0.4638728704
 H         -5.3577368640        1.2519534272        2.0683328418
 H         -4.0985064654        2.4924205685        1.9451663253
 O         -2.4031775556        1.2739608419        0.8404038658
 C         -1.3161862051        0.5267283034        0.4058199416
 O         -0.2394651249        1.1487300547        0.3855954871
 H          2.3576943220       -1.1522702331       -0.7273758038
 C          2.0675752576       -1.3224091623        0.2948197100
 C          0.7492424883       -1.5985722261        0.6188620831
 C          0.4312341056       -1.8598507979        1.9496957378
 C          1.4036240808       -1.8197606457        2.9291415204
 C          2.7133036569       -1.5082045108        2.6066235624
 C          3.0442423515       -1.2622183053        1.2803090924
 N          4.3639484134       -0.9646158619        0.9188825645
 S          4.7066214056       -0.0043877416       -0.4012566476
 O          4.5374132397       -0.7579840845       -1.6189028981
 O          6.0493249856        0.4738461014       -0.1460691109
 C          3.5624734992        1.3624524344       -0.3593937922
 C          3.4743848448        2.1173154737        0.7922871935
 C          2.6020843282        3.1919258561        0.8224960968
 C          1.8393776057        3.4947757955       -0.2936479624
 C          1.9437023700        2.7310911653       -1.4440484917
 C          2.8117067850        1.6528948708       -1.4790452737
 H          2.9166976623        1.0277655263       -2.3522019726
 H          1.3435037549        2.9651965199       -2.3092563592
 H          1.1531471878        4.3262784730       -0.2648464154
 H          2.5125087311        3.7858993516        1.7179737192
 H          4.0831890325        1.8617973260        1.6446169257
 H          4.9990740049       -0.8052846384        1.6861491992
 H          3.4719907255       -1.4616974007        3.3726686421
 H          1.1399774847       -2.0220797833        3.9564158380
 H         -0.5943592654       -2.0885407030        2.2061343122
 C         -0.3465699075       -1.6264413359       -0.4166819255
 H         -0.7159834737       -2.6590446434       -0.5063966359
 C          0.1066606462       -1.1476901079       -1.7801214730
 C          0.7866703382       -2.0890292351       -2.7272856871
 C         -0.6122619090       -1.6278503929       -3.0035277868
 H         -0.7778856814       -0.9318138117       -3.8121644470
 H         -1.4198163706       -2.3310724944       -2.8606087739
 H          1.5907565432       -1.7133783675       -3.3427965289
 H          0.9292916628       -3.1083808044       -2.4013352584
 H          0.4331987521       -0.1132074854       -1.7646719224
 O         -3.0190505229       -2.6233586037       -0.1632025622
