  62
        -98.93699017
 C          1.7601555813        0.8896006888        0.2428701368
 C          2.2749327686       -0.4047849206       -0.0052966947
 C          3.7218423717       -0.5737810636        0.2085893268
 C          4.4511240853        0.4748025688        0.6315175268
 C          5.9422382842        0.4825278873        0.8150600464
 C          6.6398342246        0.5992406696       -0.5552658148
 C          7.4611053737       -0.6278215037       -0.9515926180
 H          7.7205763803       -0.5205130782       -2.0069887148
 H          8.3928096632       -0.6307012360       -0.3819946424
 C          6.7800944795       -1.9836935397       -0.7414007607
 H          7.3588026102       -2.7205385950       -1.3025413837
 H          6.8480690654       -2.2700332934        0.3091564340
 C          5.3125760139       -2.0734125692       -1.1798386034
 H          5.1537696550       -3.0524782433       -1.6367040294
 H          5.0927041507       -1.3280841752       -1.9445946766
 C          4.2917717165       -1.9439947009       -0.0335912102
 H          3.4239240386       -2.5686502504       -0.2661783896
 H          4.7318316317       -2.3261925821        0.8917099778
 H          7.3010668717        1.4670432438       -0.5543804656
 H          5.8761910959        0.7872664613       -1.3128857361
 H          6.2544636469       -0.4244227684        1.3279077467
 H          6.1882926796        1.3406541596        1.4407356990
 O          3.9146778273        1.6991526840        0.8741099296
 C          2.5636085600        1.9393585913        0.6864321894
 O          2.2047104209        3.1044344512        0.9505050198
 O          1.5653767046       -1.3729666635       -0.3853815360
 C          0.2831742059        1.1720474815        0.0281262783
 C         -0.5469126110        0.2328064331        0.8674262428
 C         -0.2734374721        0.1455227869        2.2310206137
 C         -0.9888147292       -0.7118391007        3.0425842607
 C         -2.0020821691       -1.4932232508        2.5146633299
 C         -2.2884588623       -1.4083434527        1.1580289946
 C         -1.5701807446       -0.5408471163        0.3438423050
 H         -1.8021206138       -0.5095759338       -0.7073145811
 N         -3.3041040813       -2.1946050690        0.6003427644
 S         -4.2163686587       -1.6570585317       -0.6834864543
 O         -5.4286229546       -2.4457980494       -0.6137586670
 O         -3.4782268280       -1.7564249323       -1.9173152108
 C         -4.5918735940        0.0539630068       -0.3384136532
 C         -5.0042754596        0.4118937257        0.9300068382
 C         -5.3104315839        1.7386632795        1.1853886958
 C         -5.2067120112        2.6805279263        0.1731643876
 C         -4.8003660157        2.3043674358       -1.0972540364
 C         -4.4891494792        0.9790701653       -1.3564409413
 H         -4.1631609853        0.6437984417       -2.3276338242
 H         -4.7213220313        3.0361782019       -1.8852764417
 H         -5.4446414670        3.7129634843        0.3752699559
 H         -5.6278625539        2.0341996654        2.1724035846
 H         -5.0829191218       -0.3386976994        1.6991127603
 H         -3.8385409343       -2.7466965068        1.2536145799
 H         -2.5566231638       -2.1723853532        3.1440835429
 H         -0.7586794986       -0.7734721842        4.0955461168
 H          0.5210005565        0.7542867945        2.6414077326
 H          0.1145277864        2.1957253883        0.3930354986
 C         -0.0404320570        1.1242015218       -1.4499617869
 C         -1.1622794458        1.9473949414       -2.0041960581
 C          0.2585526501        2.3275476922       -2.2910675659
 H          0.6434887188        2.1775150731       -3.2886642494
 H          0.6710006507        3.1907990107       -1.7890049317
 H         -1.7516518535        1.5321056800       -2.8074916333
 H         -1.7231819293        2.5579349647       -1.3129868924
 H          0.1439823967        0.1496514440       -1.8884257963
