  62
        -98.94464870
 C         -2.0059493977       -0.7740688678        0.5416281817
 C         -1.9584126169       -0.0664848239       -0.6835447927
 C         -2.0340868654        1.3966244779       -0.5811639579
 C         -2.0822149010        1.9701824940        0.6346220297
 C         -2.1896639677        3.4466740031        0.8832142690
 C         -3.6556558989        3.8920320346        0.9821685178
 C         -4.5338382516        3.3819966219       -0.1603139011
 H         -4.6037512980        2.2938617345       -0.0954963746
 H         -5.5381534666        3.7801382463       -0.0009713278
 C         -4.0433644478        3.7748700508       -1.5607272803
 H         -4.8968885899        4.1232260208       -2.1459276955
 H         -3.3392641484        4.6042687264       -1.4870712334
 C         -3.3985182893        2.6337078440       -2.3496121974
 H         -3.2868891760        2.9579155229       -3.3876010620
 H         -4.0620652569        1.7654485147       -2.3466664667
 C         -2.0158628149        2.1823915795       -1.8615896696
 H         -1.3522806520        3.0450766354       -1.7710294949
 H         -1.5952139704        1.5092332130       -2.6145065129
 H         -3.6833492566        4.9828558660        1.0069163622
 H         -4.0663192902        3.5192065578        1.9232524936
 H         -1.6831287277        3.6721804824        1.8234797355
 H         -1.6877442779        3.9790658679        0.0774152305
 O         -2.0878474209        1.2588000690        1.7922271593
 C         -2.0466425701       -0.1255419454        1.7740188538
 O         -2.0561407009       -0.6567354493        2.9050468277
 O         -1.8640203204       -0.6294258340       -1.8062075272
 C         -1.8924689681       -2.2882095107        0.5394563573
 C         -0.5948264175       -2.6815869171       -0.1258080673
 C         -0.4839684005       -3.7119716835       -1.0500301092
 C          0.7342253195       -3.9840885336       -1.6491690842
 C          1.8560726900       -3.2330121062       -1.3521434972
 C          1.7591881606       -2.2133667816       -0.4110171804
 C          0.5465322684       -1.9630259869        0.2071253876
 H          0.4831799249       -1.1676884526        0.9369839245
 N          2.8813249246       -1.4413617436       -0.0610469796
 S          2.6369279160        0.1764394750        0.3589008638
 O          2.2679592764        0.2431464869        1.7521322219
 O          1.7405750059        0.8161869596       -0.5772682461
 C          4.2951020702        0.8016302121        0.1533237316
 C          5.2129492027        0.5924520485        1.1653818471
 C          6.5121189567        1.0439260646        0.9954653453
 C          6.8702266849        1.6925171947       -0.1772233006
 C          5.9378598459        1.8970117061       -1.1832004459
 C          4.6369810984        1.4466394510       -1.0201833555
 H          3.8753494777        1.5889492184       -1.7702136518
 H          6.2178801369        2.4045108440       -2.0921867591
 H          7.8816964854        2.0435495181       -0.3067879372
 H          7.2386296167        0.8890294522        1.7766710403
 H          4.8840752188        0.0920254908        2.0612336903
 H          3.6447443978       -1.5416083287       -0.7165146585
 H          2.7980902402       -3.4299977459       -1.8407949572
 H          0.8058197690       -4.7819629995       -2.3727291965
 H         -1.3536163095       -4.2917500360       -1.3127603690
 H         -1.8439883105       -2.5926098543        1.5958808967
 C         -3.1147063032       -2.9153001795       -0.0979483105
 C         -3.5812359339       -4.2723548211        0.3335136259
 C         -4.3637316297       -3.0537173699        0.7177523919
 H         -5.3148138303       -2.8761180419        0.2387588760
 H         -4.3223304679       -2.7183713598        1.7441707910
 H         -4.0002829678       -4.9338401115       -0.4096070028
 H         -3.0156991355       -4.7732478747        1.1046406983
 H         -3.2245697614       -2.6397741574       -1.1405064870
