  62
        -98.94046516
 C         -0.6629758248       -1.4299962323        0.0164729079
 C         -1.3668986027       -0.5883440794        0.9068165622
 C         -2.3818987081        0.2974413445        0.3095053898
 C         -2.5407318150        0.3070689589       -1.0251865422
 C         -3.4878048478        1.1278750977       -1.8659056198
 C         -4.9005220067        1.3651699586       -1.3216852567
 C         -5.5080863074        0.1682939854       -0.5759063206
 H         -6.4887953045       -0.0562772178       -0.9993850501
 H         -4.8827375215       -0.7150660317       -0.7163778935
 C         -5.6900243899        0.4272186921        0.9210698047
 H         -6.0942308580        1.4324653201        1.0581104702
 H         -6.4275345334       -0.2774186614        1.3129224307
 C         -4.4259274652        0.2760515965        1.7661252292
 H         -4.6661473722        0.5799078207        2.7879648628
 H         -4.1318913981       -0.7763952260        1.8072416112
 C         -3.2086117413        1.0841588637        1.2857566019
 H         -3.5118928944        2.0449287736        0.8793999122
 H         -2.5606330089        1.2572454178        2.1490901137
 H         -4.9018868900        2.2334121079       -0.6650508574
 H         -5.5283826323        1.6178547543       -2.1779767884
 H         -3.0150831813        2.0918558499       -2.0705157998
 H         -3.5514262788        0.5957462880       -2.8183787442
 O         -1.7847628463       -0.4712399713       -1.8520198913
 C         -0.8499213813       -1.3669661913       -1.3631475974
 O         -0.2657145029       -2.0309196691       -2.2398967171
 O         -1.1587444868       -0.5756987478        2.1505304988
 C          0.3588394924       -2.4076336868        0.5667354621
 C          1.7137630924       -2.1265036493       -0.0328497636
 C          2.5395989688       -3.1061594985       -0.5675609129
 C          3.7632566558       -2.7637185241       -1.1167189430
 C          4.1909912405       -1.4493935730       -1.1351249762
 C          3.3750736116       -0.4619386090       -0.5932504510
 C          2.1515909481       -0.8080145258       -0.0455311678
 H          1.5211383686       -0.0408783757        0.3812979143
 N          3.7565925696        0.8863552179       -0.6244937315
 S          3.2907582130        1.9321282260        0.5875732331
 O          4.1636388500        3.0767998791        0.4276933351
 O          3.3256638062        1.2984732850        1.8854441232
 C          1.6309289081        2.4313741401        0.1816743568
 C          1.2501822831        2.5360126081       -1.1410282929
 C         -0.0203174430        3.0043087521       -1.4349400265
 C         -0.8771368357        3.3713670954       -0.4090861287
 C         -0.4811214426        3.2577663572        0.9137282868
 C          0.7837504392        2.7805356751        1.2144611577
 H          1.1266308085        2.6627729777        2.2302505652
 H         -1.1502297736        3.5380765776        1.7109790736
 H         -1.8593026701        3.7528524745       -0.6390831868
 H         -0.3337260026        3.0836513439       -2.4638414798
 H          1.9398637448        2.2436371328       -1.9156683719
 H          4.6880135191        1.0724657215       -0.9650302484
 H          5.1430945846       -1.1842459038       -1.5688257636
 H          4.3937976992       -3.5328706977       -1.5364067576
 H          2.2233585585       -4.1361929486       -0.5637374213
 H          0.4149212492       -2.2003161191        1.6462666107
 C         -0.1126976133       -3.8327259095        0.3656249286
 C          0.3174465587       -4.9123932654        1.3119356206
 C         -1.0953839118       -4.4139639711        1.3358693741
 H         -1.8770308476       -5.0555492367        0.9574824794
 H         -1.4046144114       -3.7893030926        2.1613597030
 H          0.5041048168       -5.9001721130        0.9183261263
 H          0.9672214881       -4.6318713779        2.1272306238
 H         -0.2343469094       -4.0856635536       -0.6818664005
