  62
        -98.93476099
 C         -1.6992535520       -0.0535082878        0.7850009953
 C         -2.8853733236       -0.8162617428        0.6875219311
 C         -4.1363451270       -0.0782270814        0.4059292014
 C         -4.0855910283        1.2544223133        0.2299639054
 C         -5.2076419487        2.2018532360       -0.1036045025
 C         -5.6446272719        2.1158224823       -1.5742945617
 C         -5.8026764458        0.6973970009       -2.1147959682
 H         -6.0190617279        0.7715831111       -3.1838434621
 H         -4.8539844359        0.1674526356       -2.0128149483
 C         -6.9158812280       -0.1236242931       -1.4683851169
 H         -7.8660854594        0.4011784500       -1.5898266365
 H         -6.9849068993       -1.0654990548       -2.0187307318
 C         -6.7268346427       -0.4553101249        0.0137165781
 H         -7.4395228095       -1.2469102188        0.2632292096
 H         -6.9776102997        0.3937823971        0.6437998025
 C         -5.3428136302       -0.9860573533        0.3728241701
 H         -5.0873077354       -1.8081210528       -0.3054734475
 H         -5.3918974487       -1.4422490264        1.3689844995
 H         -4.8899499788        2.6215115912       -2.1815687472
 H         -6.5856097454        2.6573667047       -1.6858267838
 H         -6.0502898225        2.0320379689        0.5600675526
 H         -4.8315673959        3.2092593266        0.0881805659
 O         -2.9134864728        1.9477817224        0.3055158445
 C         -1.7142950612        1.3311575022        0.5888180899
 O         -0.7390682137        2.1073201745        0.6457349375
 O         -2.9375448266       -2.0690875446        0.8203294847
 C         -0.3358366620       -0.6413553424        1.1061216303
 C          0.3473942800       -1.2240343799       -0.1079108823
 C         -0.2548653186       -2.2030537924       -0.8902580050
 C          0.4171766023       -2.7420469060       -1.9719253778
 C          1.7066129200       -2.3405649310       -2.2748663533
 C          2.3199192139       -1.3685877040       -1.4940592664
 C          1.6294997060       -0.8048220105       -0.4308330688
 H          2.1030416204       -0.0335140564        0.1570669530
 N          3.6268083936       -0.9390101522       -1.7654520619
 S          4.6815640035       -0.6477539583       -0.4970522270
 O          5.9977283040       -0.8131443105       -1.0757787000
 O          4.3787334604       -1.4763112115        0.6458464508
 C          4.4406937416        1.0700505616       -0.1001489620
 C          4.5840719567        2.0013244836       -1.1093489433
 C          4.4178239175        3.3434630165       -0.8092478355
 C          4.1142498953        3.7298009048        0.4875561132
 C          3.9772961948        2.7830496255        1.4905806044
 C          4.1433732922        1.4391112608        1.1964229936
 H          4.0428039174        0.6701148206        1.9467412533
 H          3.7387850869        3.0849077838        2.4979574713
 H          3.9822285473        4.7748313433        0.7194076523
 H          4.5232066466        4.0842560916       -1.5854550187
 H          4.8238510086        1.6626117507       -2.1034520950
 H          4.0815086993       -1.4182366065       -2.5289403084
 H          2.2359027108       -2.7764347177       -3.1088380363
 H         -0.0619682717       -3.4966650762       -2.5775522888
 H         -1.2491677585       -2.5384721781       -0.6389928118
 H          0.2751271074        0.2058351062        1.4470408034
 C         -0.3656657658       -1.6813411802        2.2124884545
 C          0.9273471040       -2.0954204822        2.8462650529
 C         -0.0571241406       -1.2707057624        3.6190107564
 H         -0.6019552476       -1.7398231992        4.4246381695
 H          0.1760839839       -0.2308068742        3.7969170189
 H          1.0543509364       -3.1319877917        3.1196220722
 H          1.8359594925       -1.6285925712        2.4940602780
 H         -1.1192247516       -2.4431114182        2.0631237421
