  62
        -98.94471583
 C         -2.0374466370       -1.3736543973        0.2997421675
 C         -2.6500310635       -0.7430583848       -0.8102754187
 C         -3.7887464532        0.1332961858       -0.4981557331
 C         -4.1824126658        0.2756705888        0.7805629787
 C         -5.2861144427        1.1816877849        1.2424976841
 C         -4.7452629095        2.5713583848        1.6075987139
 C         -3.8322292189        3.1787502632        0.5420981148
 H         -3.5340150797        4.1687375658        0.8945354029
 H         -2.9219278585        2.5790256626        0.4655603845
 C         -4.4724626165        3.3022733222       -0.8476835131
 H         -4.2402738198        4.2894523428       -1.2528568801
 H         -5.5576066385        3.2339754562       -0.7625724226
 C         -3.9783492218        2.2749378446       -1.8681713516
 H         -4.3243034978        2.5860306624       -2.8574952808
 H         -2.8851332245        2.2755978943       -1.8902574761
 C         -4.4552722705        0.8335671081       -1.6484040699
 H         -5.5410832768        0.8180253524       -1.5351199128
 H         -4.1931006453        0.2585408680       -2.5412717233
 H         -5.5921468434        3.2366940712        1.7845740065
 H         -4.1779890088        2.4892267689        2.5378015168
 H         -5.7490142368        0.7385330504        2.1257998931
 H         -6.0334320799        1.2661117078        0.4561534145
 O         -3.5751397510       -0.3555770482        1.8181596295
 C         -2.4793002268       -1.1776599551        1.6072444566
 O         -1.9904058153       -1.6623626093        2.6486302474
 O         -2.2659341004       -0.8988882906       -1.9979824017
 C         -0.8359982258       -2.2764888742        0.0851817688
 C          0.2735746360       -1.5040638703       -0.5875050029
 C          1.0085350164       -1.9948683282       -1.6581648967
 C          2.0069324664       -1.2273389110       -2.2341893812
 C          2.3007784972        0.0346924156       -1.7532808515
 C          1.5876817103        0.5255722234       -0.6660829580
 C          0.5921578877       -0.2466207279       -0.0881962220
 H          0.0360241915        0.1393394157        0.7579480164
 N          1.8880945012        1.7990338994       -0.1558549662
 S          3.4958237109        2.2335523291        0.0004125266
 O          3.5226950964        3.1953658254        1.0801822933
 O          3.9985444301        2.6997236137       -1.2679031781
 C          4.3500000016        0.7395791427        0.4720992997
 C          3.9473086889        0.0934217651        1.6241222287
 C          4.5844487058       -1.0803997786        1.9917506001
 C          5.6094308272       -1.5849540037        1.2057944186
 C          6.0061505065       -0.9213882420        0.0554174036
 C          5.3703696974        0.2517514959       -0.3185785778
 H          5.6438807614        0.7980956946       -1.2065566983
 H          6.8047294306       -1.3149080096       -0.5524680046
 H          6.1010693713       -2.5005773126        1.4940884347
 H          4.2760440228       -1.5973798192        2.8863944365
 H          3.1499667040        0.5122789957        2.2174685994
 H          1.3531191964        2.0561618487        0.6598926953
 H          3.0583223367        0.6527087886       -2.2071404000
 H          2.5603438936       -1.6158561466       -3.0752124992
 H          0.7920680543       -2.9742038699       -2.0513688948
 H         -0.4901611961       -2.5658160917        1.0884644102
 C         -1.2477230272       -3.5254884278       -0.6659117119
 C         -0.5180684348       -4.8153978225       -0.4449147418
 C         -1.9054167014       -4.6376431960        0.0925355883
 H         -2.7163004379       -5.1736576525       -0.3774092430
 H         -2.0316863146       -4.5035888480        1.1573411970
 H         -0.3778954502       -5.4792930663       -1.2845517983
 H          0.3002864760       -4.8132430561        0.2588971809
 H         -1.6215692441       -3.3085774336       -1.6598208158
