  62
        -98.93595401
 C         -1.7196361281       -1.0087757568        0.0741943977
 C         -2.2980647612        0.2074445018       -0.3531215578
 C         -3.7632772115        0.3249807860       -0.2121955890
 C         -4.4598920647       -0.7179517872        0.2741908088
 C         -5.9451334251       -0.8376342389        0.5060423880
 C         -6.8613371066       -0.3026017150       -0.6051844681
 C         -7.6083931467        0.9738926103       -0.2149688465
 H         -7.9240221879        0.8872312068        0.8268147592
 H         -8.5121688837        1.0500556633       -0.8236429375
 C         -6.8190180752        2.2691698910       -0.3971796456
 H         -7.4041152900        3.0781671633        0.0466024610
 H         -6.7218436683        2.4863856064       -1.4631764832
 C         -5.4211897725        2.2770171153        0.2250534301
 H         -5.4341905702        1.7926228056        1.2007141128
 H         -5.1354927892        3.3180629546        0.3904298125
 C         -4.3468697656        1.6352305518       -0.6657667091
 H         -3.4853497463        2.3061999126       -0.7440977547
 H         -4.7278285597        1.5187156752       -1.6846733168
 H         -7.6028564107       -1.0724619732       -0.8247788267
 H         -6.2854010837       -0.1415350793       -1.5151438806
 H         -6.1231534558       -1.9055468429        0.6512582230
 H         -6.1885967127       -0.3503689455        1.4534482311
 O         -3.8558159983       -1.8754945337        0.6702889309
 C         -2.4872240999       -2.0507368419        0.5911817060
 O         -2.0811481145       -3.1546292068        1.0065859551
 H          1.8700148772        0.3957357743       -0.8901973820
 C          1.5552722795        0.5935080764        0.1205450387
 C          0.5138902901       -0.1200876378        0.6918142603
 C          0.1359563221        0.1813822785        1.9986069810
 C          0.7634600221        1.1899004713        2.7019683413
 C          1.7944188848        1.9103279480        2.1239249833
 C          2.1880353810        1.6096923251        0.8263116653
 N          3.2274768895        2.3251693380        0.2169196746
 S          4.2808363293        1.5726781096       -0.8316961769
 O          5.4679326682        2.4009885358       -0.8023119384
 O          3.6752898176        1.3958991913       -2.1273205641
 C          4.6366079160       -0.0186009212       -0.1043333981
 C          4.5916161382       -1.1465478954       -0.8968529407
 C          4.8823594540       -2.3784761544       -0.3324708724
 C          5.2097475416       -2.4606774210        1.0116146561
 C          5.2561072868       -1.3173662862        1.7947911911
 C          4.9707454940       -0.0832179608        1.2341654323
 H          5.0073085986        0.8205307378        1.8198887307
 H          5.5128669216       -1.3844047014        2.8396939796
 H          5.4310464945       -3.4206673639        1.4507641228
 H          4.8494506241       -3.2671384366       -0.9425343908
 H          4.3255016508       -1.0385676566       -1.9356646781
 H          3.6893792220        3.0026186182        0.8046165708
 H          2.2805813068        2.7061042256        2.6673955028
 H          0.4504951635        1.4180085223        3.7097039241
 H         -0.6709283745       -0.3809251712        2.4490102736
 C         -0.2199281222       -1.2181591069       -0.0371258870
 H         -0.0080401825       -2.1691851212        0.4733348817
 C          0.1715269372       -1.3513212163       -1.4937563049
 C          1.3549577924       -2.1810546031       -1.8867943876
 C         -0.0317786939       -2.6692413842       -2.1767600016
 H         -0.3768351813       -2.6728308697       -3.1998781683
 H         -0.4269453451       -3.4782843734       -1.5795922041
 H          1.9095051311       -2.6649149582       -1.0971386330
 H          1.9616534760       -1.8446889398       -2.7141246934
 H         -0.0368803885       -0.4541404088       -2.0662135696
 O         -1.6262501087        1.1608101147       -0.8285062568
