  62
        -98.93919437
 C         -1.8335671714       -1.0166883879       -0.1627112690
 C         -2.9721130574       -1.0794826539        0.6820627858
 C         -4.2146166089       -0.4622423398        0.1892948960
 C         -4.2172976153        0.1355162627       -1.0164238137
 C         -5.3273106432        0.8078199040       -1.7968017143
 C         -6.6450392767        1.1749295362       -1.1197654008
 C         -6.5384588266        2.2838799389       -0.0734175027
 H         -6.3181441301        3.2241960373       -0.5852778577
 H         -7.5109321827        2.3902226978        0.4122129561
 C         -5.4683041929        2.0814095514        0.9964907042
 H         -5.4978401427        2.9454509883        1.6660198754
 H         -4.4803107322        2.0714177357        0.5311458982
 C         -5.6271549383        0.8259273121        1.8517866715
 H         -6.6243637604        0.8076719135        2.2957330280
 H         -4.8996149589        0.8889827873        2.6655036210
 C         -5.3904814845       -0.5074821507        1.1219752295
 H         -5.1556247022       -1.2661298916        1.8741905750
 H         -6.2845828613       -0.8347321022        0.5966116719
 H         -7.3121351909        1.5307920715       -1.9096930990
 H         -7.1080594161        0.2903916694       -0.6924516487
 H         -4.8833929557        1.7103925369       -2.2290788809
 H         -5.5447484015        0.1396550269       -2.6375298668
 O         -3.0985842365        0.1732888623       -1.7949910860
 C         -1.8920381552       -0.3823927282       -1.4017337021
 O         -0.9853121552       -0.2327792313       -2.2467884006
 O         -2.9550009400       -1.6472545026        1.8064642503
 C         -0.5643925779       -1.6707452591        0.3566844719
 C          0.3992399925       -0.6550407642        0.9219848494
 C          0.7630008199       -0.6825921239        2.2629213377
 C          1.6744910537        0.2297247931        2.7666763048
 C          2.2420768962        1.1854870041        1.9436916091
 C          1.8786551503        1.2242848444        0.6037144048
 C          0.9703019310        0.3060435267        0.0996002123
 H          0.6899332500        0.3450907519       -0.9425217290
 N          2.4666098460        2.1837461738       -0.2477782854
 S          4.1394786162        2.1083893965       -0.3457797820
 O          4.7111093806        2.7484561157        0.8125479991
 O          4.4854518294        2.6869856519       -1.6246246801
 C          4.5014108280        0.3621555732       -0.3178351275
 C          5.0248295484       -0.2151673355        0.8208996442
 C          5.2197753044       -1.5867541763        0.8461842856
 C          4.8853629133       -2.3528249945       -0.2593334207
 C          4.3627992062       -1.7569770345       -1.3969611431
 C          4.1636460897       -0.3867889576       -1.4274568321
 H          3.7604284200        0.1096813405       -2.2959370084
 H          4.1044338548       -2.3528749238       -2.2578197828
 H          5.0330393366       -3.4210445854       -0.2354120183
 H          5.6266439324       -2.0535377794        1.7285095730
 H          5.2706830416        0.4173707467        1.6577903280
 H          2.0659718370        2.1761692743       -1.1754630821
 H          2.9595414391        1.9003269657        2.3132339828
 H          1.9466899332        0.1957007420        3.8104297303
 H          0.3176033870       -1.4202348344        2.9142096723
 H         -0.8947210758       -2.3132613680        1.1835633929
 C          0.1343390851       -2.5356473967       -0.6756017854
 C          1.1061459980       -3.5760988893       -0.2093682796
 C         -0.2174615881       -3.9878798559       -0.7792216371
 H         -0.2425811439       -4.4419899244       -1.7584515860
 H         -0.9689244892       -4.3697134798       -0.1035403878
 H          1.9953303215       -3.7471039955       -0.7953817056
 H          1.2539367357       -3.6789363856        0.8546729490
 H          0.3579204244       -2.0117079496       -1.5954897301
