  62
        -98.94485242
 C          1.9103661614        0.1266842600        0.0422003657
 C          2.9054199472        1.0354608045        0.4752011523
 C          4.2285260098        0.4588477647        0.7457559066
 C          4.4118285305       -0.8654170499        0.5920129477
 C          5.7210945812       -1.5750878456        0.7780874801
 C          6.5040376069       -1.6498392911       -0.5403217439
 C          6.6131796309       -0.3115987392       -1.2713062542
 H          7.2105619274       -0.4800814123       -2.1700047609
 H          5.6181859321       -0.0034335281       -1.6007161824
 C          7.2441111282        0.8155740415       -0.4418490794
 H          7.7894958481        0.3931078576        0.4028259688
 H          7.9693116667        1.3441524779       -1.0641413307
 C          6.2497342933        1.8601146313        0.0683159305
 H          6.8179061040        2.7136074140        0.4476378800
 H          5.6367995819        2.2184120941       -0.7625911472
 C          5.3145270392        1.3968870921        1.1923695379
 H          4.8036742298        2.2810432475        1.5847764159
 H          5.9008156141        0.9524237653        1.9990682729
 H          7.5037488429       -2.0325748477       -0.3268507757
 H          6.0019161432       -2.3605450312       -1.2009144769
 H          5.5163277141       -2.5887517120        1.1265950507
 H          6.3078437147       -1.0535721271        1.5317993030
 O          3.4249926235       -1.7108678262        0.1988162723
 C          2.1529007178       -1.2399323697       -0.0948142228
 O          1.3500233802       -2.1212364635       -0.4550496794
 O          2.6947145685        2.2682538986        0.6317632797
 C          0.5258062200        0.6601722223       -0.2809770003
 C         -0.5032048597       -0.0152275665        0.5902265589
 C         -0.3214060671        0.0064498085        1.9717434907
 C         -1.2186614725       -0.6194127981        2.8134367802
 C         -2.3265617033       -1.2697790433        2.2973272788
 C         -2.5226136670       -1.2912987273        0.9227689116
 C         -1.6172165341       -0.6602728196        0.0782960091
 H         -1.7888129914       -0.7095726076       -0.9833732537
 N         -3.6321024191       -1.9542361752        0.3726771176
 S         -4.5464742147       -1.2156728683       -0.8155470758
 O         -5.7859970356       -1.9607224002       -0.8343200824
 O         -3.8164797221       -1.1630604827       -2.0556502967
 C         -4.8329386211        0.4284428383       -0.1873923209
 C         -5.8024550998        0.5966100694        0.7823496877
 C         -5.9900184327        1.8539124226        1.3323520144
 C         -5.2023703100        2.9150302824        0.9116914537
 C         -4.2345370989        2.7297350263       -0.0631071496
 C         -4.0448007398        1.4748198044       -0.6204010821
 H         -3.3057991294        1.2924257676       -1.3827516479
 H         -3.6243354234        3.5564128554       -0.3905487131
 H         -5.3446184494        3.8930355279        1.3437089354
 H         -6.7453529788        2.0028135776        2.0870458522
 H         -6.4002185309       -0.2517160106        1.0739575681
 H         -4.2274192233       -2.4015803161        1.0543903499
 H         -3.0256007683       -1.7674039995        2.9522015012
 H         -1.0581926562       -0.6006468455        3.8808294850
 H          0.5451869287        0.5132086505        2.3741147694
 H          0.5576991169        1.7266577301       -0.0124063943
 C          0.2492900025        0.5407783642       -1.7643118945
 C         -0.6489911040        1.5270730741       -2.4464177824
 C          0.8282196067        1.5608875638       -2.6967204259
 H          1.2004032090        1.2308537551       -3.6550569378
 H          1.4017347118        2.3644613741       -2.2580003413
 H         -1.2994259798        1.1734150503       -3.2330499391
 H         -1.0686739576        2.3171655847       -1.8419803758
 H          0.2318278740       -0.4882352463       -2.1068837296
