  62
        -98.93048364
 C          2.3929248347        0.6586025474        0.3024600835
 C          2.7644515484       -0.7077855812        0.2503236306
 C          4.1166931917       -1.0224801073       -0.2412084182
 C          4.9303312918       -0.0159534823       -0.6103358519
 C          6.3325836600       -0.0223468085       -1.1827885060
 C          7.1819261914       -1.2900869658       -1.1519456635
 C          7.6208465427       -1.7310167030        0.2441140623
 H          8.1249816008       -2.6957766587        0.1557507788
 H          8.3483206545       -1.0088382098        0.6231770971
 C          6.5059392281       -1.8464904531        1.2805808048
 H          6.0527113420       -0.8665350195        1.4437260572
 H          6.9595818093       -2.1524658000        2.2272637581
 C          5.4050552495       -2.8516108251        0.9480469093
 H          4.7664761119       -2.9451159385        1.8307979713
 H          5.8472523141       -3.8301271324        0.7507907503
 C          4.5001392020       -2.4744283119       -0.2374154275
 H          4.9528963811       -2.7547758777       -1.1855076958
 H          3.5661922382       -3.0360059362       -0.1413807330
 H          6.6690319903       -2.0985994010       -1.6643057084
 H          8.0856843715       -1.0732020830       -1.7278357648
 H          6.2270394094        0.2987202657       -2.2248895540
 H          6.8684117686        0.7808381019       -0.6670484513
 O          4.5278705960        1.2856811677       -0.5502436729
 C          3.2680629629        1.6648929385       -0.1045886192
 O          3.0843756210        2.8945928264       -0.1282736469
 O          1.9894811416       -1.6383056450        0.6038042332
 C          0.9971718461        0.9631837158        0.8132040626
 C         -0.0066263947        1.0004892351       -0.3105098992
 C          0.2339151183        1.7180557495       -1.4782052473
 C         -0.7149426252        1.7554830066       -2.4835831133
 C         -1.9227370740        1.0955314475       -2.3393049856
 C         -2.1685364950        0.3683793671       -1.1805617791
 C         -1.2070224672        0.3188096494       -0.1805802127
 H         -1.4060477452       -0.2618522029        0.7080605560
 N         -3.3729672934       -0.3314349737       -1.0102361174
 S         -4.0302657793       -0.4007968644        0.5450881206
 O         -3.9311384719        0.8953448526        1.1769166689
 O         -3.4335208471       -1.5034778913        1.2556853034
 C         -5.7290534620       -0.7819379101        0.1623216731
 C         -6.6646135049        0.2347676367        0.1302048745
 C         -7.9757937267       -0.0718840117       -0.1988795532
 C         -8.3260218805       -1.3813658678       -0.4916405483
 C         -7.3757184426       -2.3912282590       -0.4543107652
 C         -6.0634279732       -2.0921384232       -0.1247029510
 H         -5.2928776225       -2.8437539009       -0.0734820788
 H         -7.6523558922       -3.4085715808       -0.6795451238
 H         -9.3467862472       -1.6172940945       -0.7477972302
 H         -8.7175855979        0.7099504988       -0.2252280942
 H         -6.3479694052        1.2364314920        0.3728453682
 H         -4.0687300086       -0.0953761098       -1.7045834968
 H         -2.6658130084        1.1360582776       -3.1211643673
 H         -0.5168216954        2.3165221653       -3.3845632476
 H          1.1663447178        2.2525400546       -1.5827740116
 H          0.7352433244        0.1018447695        1.4498902443
 C          0.9258600033        2.2049805464        1.6910890591
 C          0.2966570449        3.4915139512        1.2585318324
 C         -0.3854567311        2.6353607148        2.2806256300
 H         -0.4034589150        2.9690178421        3.3073921261
 H         -1.2750519127        2.1001178125        1.9786148333
 H          0.7687422231        4.4087332172        1.5754445007
 H         -0.1307030052        3.5431081069        0.2697631071
 H          1.7968803793        2.2924579770        2.3333522905
