  62
        -98.94416794
 C          2.6370669055       -1.0942875453       -0.1972905036
 C          2.7448747173       -0.2902234707        0.9633474781
 C          3.5590174608        0.9260935417        0.8240012692
 C          4.1414389388        1.1993048220       -0.3577896441
 C          4.9458332357        2.4316282272       -0.6528435577
 C          4.0583281674        3.5537503280       -1.2099191447
 C          2.7937752077        3.8069575633       -0.3887362845
 H          2.1445640552        2.9303463085       -0.4538255754
 H          2.2608887681        4.6359944974       -0.8597432982
 C          3.0511197950        4.1362655475        1.0884318950
 H          2.4240932048        4.9840526566        1.3719743561
 H          4.0892770386        4.4415767697        1.2235415501
 C          2.7275435715        2.9977104114        2.0577364081
 H          1.7190681767        2.6237680097        1.8624387462
 H          2.7351332874        3.4033635366        3.0727551485
 C          3.6946087533        1.8073013365        2.0337559246
 H          3.4599951379        1.1723919422        2.8930112336
 H          4.7211279207        2.1639404666        2.1386707119
 H          3.7587641643        3.2863059363       -2.2261629947
 H          4.6503008495        4.4692789345       -1.2609649732
 H          5.4397941479        2.7631773316        0.2582917686
 H          5.7041854823        2.1781056533       -1.3954930275
 O          4.0174299294        0.3995751153       -1.4490073499
 C          3.2532350611       -0.7555885750       -1.4006821391
 O          3.1964321135       -1.3816456416       -2.4798505042
 H          0.3295389199       -0.3627359130       -1.1133492625
 C         -0.2360521549       -0.9499016812       -0.3985773740
 C          0.3757285037       -2.0366787046        0.2145448695
 C         -0.3680999233       -2.7925271134        1.1108463339
 C         -1.6784257013       -2.4501341406        1.3980284756
 C         -2.2746802765       -1.3547029363        0.8018918591
 C         -1.5453824813       -0.5999838194       -0.1079035229
 N         -2.1399581844        0.5214192785       -0.7147172314
 S         -3.6228437648        0.3088395977       -1.4764893921
 O         -3.7754703130       -1.0418354655       -1.9659156180
 O         -3.6937544693        1.3628259936       -2.4650771477
 C         -4.8144478015        0.6333465396       -0.1943250538
 C         -4.7555230494        1.8500074437        0.4567073841
 C         -5.6803205233        2.1210030137        1.4523903256
 C         -6.6443147594        1.1776860937        1.7761189794
 C         -6.6923504327       -0.0375804201        1.1104556970
 C         -5.7695380195       -0.3154724743        0.1139340252
 H         -5.7643538114       -1.2482595456       -0.4270908733
 H         -7.4428030549       -0.7691523966        1.3633718493
 H         -7.3623429173        1.3913233193        2.5520307594
 H         -5.6460065275        3.0648861078        1.9722595381
 H         -3.9931279046        2.5562741694        0.1729437122
 H         -1.5112830598        1.0368694804       -1.3136061046
 H         -3.2915208698       -1.0802755041        1.0301040602
 H         -2.2419909010       -3.0432750247        2.1018341189
 H          0.0792800191       -3.6484859024        1.5885618251
 C          1.8028268050       -2.3612881748       -0.1588516977
 H          1.8004240906       -2.7564611068       -1.1860349666
 C          2.4491831236       -3.3830285409        0.7539510485
 C          2.2910879594       -4.8482371947        0.4835384696
 C          3.6086278023       -4.1785745627        0.2369801468
 H          4.4299441202       -4.3885113220        0.9055132999
 H          3.9124670303       -4.0029318523       -0.7851434726
 H          1.7032223712       -5.1386334020       -0.3742535821
 H          2.2111535551       -5.5223153855        1.3230181746
 H          2.4896993906       -3.0510910705        1.7848810815
 O          2.1895651678       -0.5699075599        2.0566520294
