  62
        -98.93932402
 C         -2.5507032126       -1.1528078024       -0.2649283787
 C         -2.1294501926       -0.0152807453       -0.9974050625
 C         -3.0506364787        1.1332368787       -0.9817246419
 C         -4.2136388954        1.0435493532       -0.3125056596
 C         -5.2067727116        2.1581714113       -0.1595355670
 C         -4.9234311171        2.9798810726        1.1059240007
 C         -3.4629665071        3.4084096567        1.2514698888
 H         -3.3886418759        4.0053910563        2.1630139820
 H         -2.8406533137        2.5219520387        1.3972592572
 C         -2.9175082475        4.2169047362        0.0660822096
 H         -3.7448205177        4.6137540135       -0.5235515506
 H         -2.3549594991        5.0693623925        0.4524074041
 C         -1.9711931735        3.4407593445       -0.8524047227
 H         -1.1824596752        2.9661587955       -0.2613379001
 H         -1.4853979237        4.1553738286       -1.5226802206
 C         -2.6260407617        2.3657980799       -1.7291202983
 H         -3.4685673377        2.7968232223       -2.2742248911
 H         -1.8783513659        2.0330685883       -2.4554941508
 H         -5.5634410163        3.8638378542        1.0940412302
 H         -5.1905626083        2.3770172764        1.9767417832
 H         -5.1651224301        2.7979746924       -1.0386442641
 H         -6.2041542839        1.7222252191       -0.0837015305
 O         -4.5962452595       -0.0747100003        0.3548289310
 C         -3.7716695639       -1.1842141110        0.4138139096
 O         -4.2345189516       -2.1279287029        1.0859899754
 H          0.8905811312       -1.4817980563       -0.6204946461
 C          0.6783772763       -1.6190614740        0.4265515624
 C         -0.5642651725       -2.0751869895        0.8406353284
 C         -0.8124368478       -2.2041561688        2.2053085806
 C          0.1606850166       -1.8858801842        3.1327314149
 C          1.3975423463       -1.4256289582        2.7170057348
 C          1.6552090641       -1.2903322565        1.3576950235
 N          2.9196420292       -0.8565116053        0.9184577589
 S          3.0005231082        0.2465394338       -0.3621530799
 O          2.1362628622        1.3745123509       -0.0980961949
 O          2.8124887970       -0.4593636511       -1.6025358036
 C          4.7104486703        0.7386483563       -0.2196756379
 C          5.0306733974        1.9457486535        0.3714063437
 C          6.3656007025        2.2969008832        0.5000917567
 C          7.3524926413        1.4377501211        0.0413332009
 C          7.0158792793        0.2292570393       -0.5506532837
 C          5.6833293725       -0.1265430728       -0.6837188483
 H          5.3728351846       -1.0499017109       -1.1439511783
 H          7.7857869093       -0.4349131263       -0.9088506269
 H          8.3903578789        1.7129165155        0.1430113845
 H          6.6296934192        3.2372697918        0.9564723316
 H          4.2289261651        2.5842849879        0.7063501026
 H          3.4937260091       -0.5314305930        1.6860473879
 H          2.1591205291       -1.1730011966        3.4395141862
 H         -0.0456411908       -1.9914044358        4.1872038467
 H         -1.7873207828       -2.5448821078        2.5258249378
 C         -1.6771450877       -2.3918177733       -0.1302926297
 H         -2.3168501390       -3.1545585579        0.3350810902
 C         -1.1913596335       -2.9231278617       -1.4614118775
 C         -0.6725685734       -4.3268448203       -1.5337997434
 C         -1.9898560454       -3.9812439726       -2.1590311664
 H         -2.0582996822       -3.9469364234       -3.2360217333
 H         -2.8916219808       -4.3272533266       -1.6747262940
 H         -0.6810414080       -4.9079059987       -0.6238152307
 H          0.1674077856       -4.5311575453       -2.1798811087
 H         -0.7141714131       -2.1749105715       -2.0812400678
 O         -1.0507326590        0.0530598112       -1.6430175748
