  62
        -98.94478720
 C          2.0502690451        1.3294869882       -0.0006973208
 C          2.6586033554        0.6915357650        1.1061438410
 C          3.8278922399       -0.1446545836        0.8052667691
 C          4.2421909642       -0.2604453151       -0.4699536420
 C          5.3811963007       -1.1253235770       -0.9250418081
 C          4.8922517847       -2.5289581592       -1.3090220427
 C          3.9914281777       -3.1779661171       -0.2580358530
 H          3.0598731385       -2.6108979430       -0.1887685003
 H          3.7319304056       -4.1745352151       -0.6221635172
 C          4.6225822489       -3.2909140156        1.1369357612
 H          4.4238492689       -4.2898968676        1.5309889694
 H          5.7050749576       -3.1816461628        1.0630218721
 C          4.0817379754       -2.2919992121        2.1616715137
 H          2.9895085366       -2.3360994932        2.1739191526
 H          4.4312983900       -2.5980656715        3.1512613322
 C          4.5043493819       -0.8313589397        1.9585544306
 H          4.2112675064       -0.2741695972        2.8532179556
 H          5.5899619748       -0.7737144872        1.8585629006
 H          5.7633463579       -3.1626221356       -1.4848893754
 H          4.3300503230       -2.4566826092       -2.2430534971
 H          5.8393087882       -0.6589335869       -1.7987541396
 H          6.1216523813       -1.1915860059       -0.1303018952
 O          3.6303267670        0.3639607299       -1.5078269400
 C          2.5127646115        1.1622208852       -1.3063253274
 O          2.0393412894        1.6539949879       -2.3470877369
 H          0.0007177603       -0.3144636635        0.3768213540
 C         -0.6421261844        0.2623022016       -0.2768760112
 C         -0.3645341269        1.6096546534       -0.4780362120
 C         -1.2072125787        2.3414928838       -1.3032691404
 C         -2.2757321357        1.7278018223       -1.9355435400
 C         -2.5336531786        0.3824882345       -1.7521963151
 C         -1.7095444066       -0.3545739245       -0.9099262735
 N         -1.9715645975       -1.7183721925       -0.7003063285
 S         -3.5575053855       -2.1931238788       -0.4606268428
 O         -3.4737044508       -3.4030543783        0.3270336852
 O         -4.2254475287       -2.3164025886       -1.7322907767
 C         -4.3042690856       -0.8794973134        0.4883194451
 C         -3.7541136267       -0.5706743997        1.7167063624
 C         -4.3024638138        0.4648987392        2.4553931499
 C         -5.3867340489        1.1704146243        1.9559326348
 C         -5.9312133355        0.8444862456        0.7237295861
 C         -5.3851944217       -0.1891320496       -0.0205778283
 H         -5.7748357586       -0.4737498378       -0.9843437849
 H         -6.7755306383        1.3932600732        0.3389511875
 H         -5.8088566314        1.9781480093        2.5326310920
 H         -3.8796357453        0.7188896376        3.4142187446
 H         -2.9137543214       -1.1404878681        2.0803639876
 H         -1.3482437095       -2.1633996149       -0.0436538350
 H         -3.3483906661       -0.1125303746       -2.2550884353
 H         -2.9144380744        2.3057819628       -2.5855887069
 H         -1.0214868792        3.3904644959       -1.4629112267
 C          0.8280688715        2.1989882955        0.2347902244
 H          0.6379459586        2.1444782412        1.3171457482
 C          1.1136809564        3.6383394658       -0.1359288816
 C          0.3723383663        4.7513818380        0.5406772898
 C          1.8177709032        4.5138528349        0.8555937621
 H          2.5504273277        5.2185803075        0.4919056785
 H          2.0705147267        4.0778070521        1.8111776581
 H          0.1127227809        5.6246304515       -0.0383619899
 H         -0.3589840923        4.4829822943        1.2877192019
 H          1.3768191062        3.7554325774       -1.1809950852
 O          2.2379274953        0.8092769471        2.2894110151
