  62
        -98.93277101
 C         -2.5597812882       -0.9903515484       -0.1409664882
 C         -2.7947561693        0.4008326922       -0.0416929730
 C         -4.1435527358        0.8021032909        0.3963087102
 C         -5.0523652074       -0.1436118823        0.6899519935
 C         -6.4616707941        0.0323114854        1.1985958917
 C         -7.3157702737        1.1344341224        0.5576367931
 C         -7.0373658751        1.3875647329       -0.9310836183
 H         -6.4100271157        0.5911627996       -1.3350306919
 H         -7.9823488630        1.3668200852       -1.4771259984
 C         -6.3738912425        2.7418639861       -1.1922147699
 H         -6.8655457390        3.4971951599       -0.5752874067
 H         -6.5368618140        3.0168957938       -2.2370611667
 C         -4.8674142926        2.7939855209       -0.9405903400
 H         -4.5434056670        3.8314887196       -1.0522666174
 H         -4.3440518965        2.2112623227       -1.7034252338
 C         -4.4067420979        2.2800541391        0.4333954590
 H         -3.4464779902        2.7496379666        0.6640895944
 H         -5.1177574680        2.5442312990        1.2124250350
 H         -7.1818545830        2.0651871732        1.1070504274
 H         -8.3585430879        0.8402095396        0.6885320165
 H         -6.4137799831        0.1995318217        2.2787117735
 H         -6.9410104088       -0.9375854032        1.0451861554
 O         -4.7761733814       -1.4757576186        0.5900861114
 C         -3.5378867626       -1.9312327099        0.1733112274
 O         -3.4327653416       -3.1743817404        0.1290325194
 O         -1.9212315860        1.2695437651       -0.2975264043
 C         -1.2017845909       -1.4988913456       -0.5869593744
 C         -0.1244869644       -1.0032489119        0.3484971782
 C         -0.3291267704       -1.0979349504        1.7225010523
 C          0.6356842579       -0.6684577982        2.6128639768
 C          1.8296607735       -0.1391966314        2.1553833741
 C          2.0521370588       -0.0555364315        0.7884895611
 C          1.0810614301       -0.4929378919       -0.1056876625
 H          1.2688755159       -0.4202545310       -1.1656638752
 N          3.2587218355        0.4870656015        0.3133979086
 S          4.6809758238        0.0502495367        1.1129203093
 O          4.6920053984       -1.3743434840        1.3600589510
 O          4.8329251594        0.8912334357        2.2737693282
 C          5.9039333855        0.4796043849       -0.1102861197
 C          6.3546119273       -0.4932259022       -0.9826189134
 C          7.2878053487       -0.1478955118       -1.9473942579
 C          7.7497801857        1.1574627705       -2.0246438025
 C          7.2879067845        2.1226660073       -1.1421050930
 C          6.3555633610        1.7841259940       -0.1743054079
 H          5.9755674084        2.4977253373        0.5379712089
 H          7.6517234920        3.1355701436       -1.2040756727
 H          8.4767500983        1.4232957339       -2.7757357085
 H          7.6510464059       -0.8964961582       -2.6329738372
 H          5.9758242765       -1.4975395825       -0.8795387739
 H          3.3543375416        0.3933012758       -0.6884920941
 H          2.5912702395        0.2001623455        2.8389484951
 H          0.4580004534       -0.7443839782        3.6755119351
 H         -1.2609966740       -1.5119308900        2.0846315826
 H         -1.2448435879       -2.5948865850       -0.4996028197
 C         -0.9640994198       -1.1344021565       -2.0381351047
 C         -0.1111515240       -2.0052359155       -2.9099595348
 C         -1.5966050502       -1.9746407141       -3.1050204131
 H         -1.9935180718       -1.4841363796       -3.9811348789
 H         -2.1750500770       -2.8287750186       -2.7835326749
 H          0.5098449150       -1.5366711259       -3.6588213565
 H          0.3220518254       -2.8881855905       -2.4644675987
 H         -0.9359660893       -0.0622588571       -2.1963022743
