  62
        -98.94115640
 C         -2.2539760129       -1.0104933186        0.5882915280
 C         -2.0890352435        0.2205532385       -0.0909569160
 C         -3.1845344003        1.1851585780        0.0705690408
 C         -4.2442366462        0.8734040924        0.8390700372
 C         -5.4268022259        1.7607623437        1.1188224950
 C         -6.5112534891        1.7167933966        0.0336098810
 C         -6.1509275966        2.4209536626       -1.2750845393
 H         -7.0701352891        2.5030665132       -1.8584083910
 H         -5.8105190590        3.4342403953       -1.0598735874
 C         -5.0963110637        1.6902463041       -2.1180194892
 H         -5.0117813360        0.6548757564       -1.7796785650
 H         -5.4200714260        1.6598162933       -3.1608971618
 C         -3.7091984833        2.3325246316       -2.0935989239
 H         -3.7550226280        3.3220857333       -2.5539114703
 H         -3.0339014291        1.7150433507       -2.6918880192
 C         -3.1030568879        2.4734077012       -0.6911444875
 H         -2.0456191829        2.7277138454       -0.7992263516
 H         -3.6022721921        3.2729965375       -0.1442441979
 H         -6.7590617161        0.6726851556       -0.1707878356
 H         -7.4028901676        2.1955470687        0.4448308965
 H         -5.8637770524        1.4093121488        2.0559084151
 H         -5.0893689518        2.7883969568        1.2559757363
 O         -4.3549263357       -0.3164828761        1.4881810082
 C         -3.3767936692       -1.2899518959        1.3666910612
 O         -3.6123402641       -2.3400959891        1.9979862344
 H          1.2526922757       -2.4107708858       -0.7754882463
 C          1.3079836690       -1.8069039900        0.1175707998
 C          0.1616315625       -1.5425069791        0.8518443201
 C          0.2780719440       -0.7622330915        1.9993079123
 C          1.4999210952       -0.2492006432        2.3885145252
 C          2.6389604957       -0.5070652599        1.6447649841
 C          2.5368703451       -1.2887377196        0.5033283091
 N          3.7094643441       -1.5517684609       -0.2511755334
 S          4.1608399014       -0.3116604503       -1.3034419666
 O          3.0413905272        0.1373016531       -2.1017799368
 O          5.2859401892       -0.8401139405       -2.0443105009
 C          4.7031039078        0.9878645218       -0.2202575212
 C          5.9639119518        0.9044023272        0.3376481253
 C          6.3799367455        1.9070358789        1.1990766391
 C          5.5318816591        2.9665749819        1.4858944407
 C          4.2696524293        3.0353334632        0.9153024683
 C          3.8469464752        2.0366803427        0.0520283788
 H          2.8726480978        2.0458528693       -0.4111185303
 H          3.6112538889        3.8590624359        1.1402257438
 H          5.8559869686        3.7454708244        2.1580233554
 H          7.3607624289        1.8595075053        1.6440145899
 H          6.5886563649        0.0650872360        0.0806905553
 H          3.6297304817       -2.3973041705       -0.8017587803
 H          3.5979431480       -0.1218691185        1.9495181799
 H          1.5685779632        0.3546095276        3.2804558180
 H         -0.6112743687       -0.5580282260        2.5804344626
 C         -1.1917166907       -2.0867357287        0.4647822690
 H         -1.4649974752       -2.8708873660        1.1866246404
 C         -1.2262211234       -2.6786191743       -0.9301821539
 C         -0.8642299103       -4.1153656953       -1.1559967704
 C         -2.2928461141       -3.6761055768       -1.2640592961
 H         -2.7495917687       -3.6360980339       -2.2416344639
 H         -2.9757347050       -3.9506828335       -0.4731617196
 H         -0.3416659934       -4.3799922380       -2.0635173900
 H         -0.5797021588       -4.7015101796       -0.2950975966
 H         -0.9596420376       -1.9559767663       -1.6945626939
 O         -1.0800925269        0.5031377298       -0.7885817757
