  62
        -98.93739722
 C         -1.9596642398       -1.4725684796        0.2950813295
 C         -2.0107252300       -0.3198816793        1.1187150991
 C         -2.9990925800        0.7128544905        0.7692887987
 C         -3.7835366098        0.5324931501       -0.3096354014
 C         -4.9007602098        1.3790862399       -0.8827185118
 C         -5.0807987600        2.8313166800       -0.4480134523
 C         -3.9548881500        3.7722556299       -0.8756105824
 H         -3.9968517398        3.8915871596       -1.9612778324
 H         -4.1402778001        4.7505842901       -0.4268787927
 C         -2.5412214300        3.3197970602       -0.5168411020
 H         -1.8478077100        4.0805024701       -0.8849660821
 H         -2.3090510298        2.3911586400       -1.0422550317
 C         -2.2720567202        3.1256918206        0.9741651181
 H         -1.1999858802        2.9492760107        1.0948604583
 H         -2.5286283404        4.0376143008        1.5166221178
 C         -3.0046828502        1.9427716408        1.6300979083
 H         -2.4672324304        1.6794298211        2.5456147785
 H         -4.0200230603        2.2099246508        1.9130197481
 H         -5.2370217801        2.8864330503        0.6253072177
 H         -6.0022537099        3.1843276798       -0.9192655025
 H         -4.7732858996        1.3434019896       -1.9693251018
 H         -5.8269915798        0.8358079299       -0.6645383818
 O         -3.6870703896       -0.5857679201       -1.0838283710
 C         -2.7745042896       -1.5976259100       -0.8288603906
 O         -2.8086193294       -2.5169582402       -1.6691082103
 H          1.3887646800       -1.5334287889        1.5869940400
 C          1.4460885302       -1.7513009392        0.5290891201
 C          0.3369370204       -2.2814627395       -0.1145652399
 C          0.4121314106       -2.5289028699       -1.4811062998
 C          1.5770036907       -2.2578864800       -2.1761014097
 C          2.6867979105       -1.7414836697       -1.5291560897
 C          2.6174980603       -1.4792817893       -0.1668646998
 N          3.7415384002       -0.9736404891        0.5129343502
 S          4.5142285501        0.4092465608       -0.0185235800
 O          4.9757802504        0.2067630305       -1.3679107999
 O          5.5277248800        0.6784597112        0.9745767100
 C          3.2839357700        1.7004244708        0.0175544994
 C          3.2794943698        2.5854890911        1.0772605991
 C          2.3175524597        3.5815723910        1.1162556787
 C          1.3745010899        3.6681377706        0.1038957985
 C          1.3827351901        2.7623474003       -0.9458473512
 C          2.3467163902        1.7680522404       -0.9943575908
 H          2.3871793604        1.0542682101       -1.8012172606
 H          0.6412441502        2.8260474800       -1.7263449814
 H          0.6296199398        4.4479202006        0.1316357581
 H          2.3047948495        4.2850203813        1.9332114585
 H          4.0359140097        2.4852346014        1.8389781193
 H          3.6141610600       -0.9231442488        1.5136884302
 H          3.5981232206       -1.5251249898       -2.0626992696
 H          1.6244529909       -2.4546142203       -3.2367843497
 H         -0.4554685693       -2.9132347301       -1.9949573698
 C         -0.9312662897       -2.5279501094        0.6666345000
 H         -0.7074062699       -2.3488067590        1.7269947100
 C         -1.4217682096       -3.9528105294        0.5182573103
 C         -0.6956768196       -5.0436861992        1.2450003208
 C         -2.0659264997       -4.6299134991        1.6890289304
 H         -2.8938287597       -5.2979104193        1.5049887705
 H         -2.1564125799       -4.0669088989        2.6067161902
 H          0.1439966902       -4.7610561989        1.8621301008
 H         -0.5790521795       -5.9986474793        0.7562547811
 H         -1.8193614094       -4.1786368798       -0.4617642397
 O         -1.2620743402       -0.1650132590        2.1212271492
