  62
        -98.94267324
 C         -1.4387986185       -1.0466269111       -0.7961557422
 C         -1.1145321599       -1.9117300503        0.2746094788
 C          0.1129712605       -2.7133356503        0.1199741610
 C          0.8779923919       -2.5448578309       -0.9715892480
 C          2.1405455126       -3.2689426509       -1.3729606559
 C          3.1615604411       -3.6049236401       -0.2806573842
 C          3.3103743995       -2.5464485993        0.8218138353
 H          4.3668577593       -2.2955760991        0.9376101266
 H          2.7870304097       -1.6271310896        0.5510534140
 C          2.7824129177       -3.0168780185        2.1781788749
 H          3.0911005876       -4.0516132884        2.3465439859
 H          3.2359807766       -2.4030001180        2.9601506151
 C          1.2682309175       -2.9032922787        2.3390711827
 H          0.9862918773       -1.8463416487        2.3276447317
 H          0.9985248962       -3.3010129581        3.3209100126
 C          0.4389388590       -3.6282352795        1.2650925221
 H          0.9371679296       -4.5350335596        0.9288751733
 H         -0.5211608215       -3.9038385193        1.7103111809
 H          2.9056741207       -4.5594981498        0.1769965760
 H          4.1213657519       -3.7444292803       -0.7817474628
 H          1.8486206634       -4.1930739813       -1.8816351057
 H          2.6096504935       -2.6271868013       -2.1232393256
 O          0.5539852231       -1.6563601615       -1.9553914491
 C         -0.5930555971       -0.8848585517       -1.8906757111
 O         -0.7439067659       -0.1048265623       -2.8533125918
 H         -0.5134350197        1.2725413494       -0.2013442424
 C         -1.2658440907        1.4405326498        0.5557579765
 C         -2.4895005605        0.7920414996        0.4477264452
 C         -3.4566883218        1.0357898101        1.4129882937
 C         -3.1820098534        1.8807998208        2.4754689136
 C         -1.9420976137        2.4786401510        2.6085768249
 C         -0.9726334223        2.2509979706        1.6380622263
 N          0.3027584175        2.8310354608        1.7185100377
 S          1.6229215583        1.9430802207        1.1908315901
 O          1.4487010682        0.5283476908        1.4165556207
 O          2.7546259973        2.5534742312        1.8596622412
 C          1.7364055107        2.2934971195       -0.5499129900
 C          2.1287995120        1.2879822290       -1.4097405488
 C          2.2429107338        1.5644987782       -2.7621766488
 C          1.9697814242        2.8406031978       -3.2279566000
 C          1.5858081929        3.8434505284       -2.3506354212
 C          1.4688236311        3.5720684192       -0.9971563912
 H          1.1660897500        4.3238852296       -0.2874595021
 H          1.3726165132        4.8341907881       -2.7187793221
 H          2.0523220156        3.0508718172       -4.2825985301
 H          2.5287547448        0.7797132078       -3.4438829279
 H          2.3156705016        0.3029208993       -1.0105939379
 H          0.4968055962        3.3276379214        2.5759162876
 H         -1.7209139449        3.1101390516        3.4555315848
 H         -3.9390467645        2.0589920111        3.2241821624
 H         -4.4183891517        0.5545543599        1.3432408627
 C         -2.6658865288       -0.1539636012       -0.7158075144
 H         -2.6695168076        0.4399580582       -1.6417672948
 C         -3.9356726087       -0.9742478414       -0.6522936256
 C         -5.2231144281       -0.4093056019       -1.1707908677
 C         -4.5234159169       -1.4969841623       -1.9274471961
 H         -4.9539386368       -2.4870199523       -1.9288334660
 H         -4.0191933057       -1.2392875128       -2.8476134756
 H         -5.2016115877        0.5879986379       -1.5832798484
 H         -6.1387644488       -0.6546628917       -0.6542557888
 H         -3.9705730198       -1.6206576408        0.2167089347
 O         -1.8263151312       -2.0326825298        1.3059247879
