  62
        -98.94033965
 C         -1.6968009386       -1.3838160105        0.3421718686
 C         -1.2668999477       -0.3009296024       -0.4580206438
 C         -1.8403862910        1.0205510449       -0.1466675750
 C         -2.7005504533        1.1365873769        0.8784684666
 C         -3.4270682539        2.3697087818        1.3411201024
 C         -4.7986827619        2.4931244686        0.6550278445
 C         -4.7874603604        3.2322571767       -0.6823227721
 H         -5.7890609219        3.1452304325       -1.1095837593
 H         -4.5975351876        4.2925673136       -0.5035265497
 C         -3.7703627895        2.7169920297       -1.7031039563
 H         -3.7765324019        1.6256017651       -1.7067408706
 H         -4.0919967953        3.0468689004       -2.6926402738
 C         -2.3445558793        3.2278301563       -1.4463576458
 H         -2.3762015905        4.0281700837       -0.7076505424
 H         -1.9462567314        3.6683245821       -2.3627431734
 C         -1.3434023195        2.1533348786       -1.0032755594
 H         -0.9194821824        1.6686971047       -1.8887346874
 H         -0.5058716050        2.6280303002       -0.4782887045
 H         -5.1952809633        1.4840487352        0.5157886316
 H         -5.4784693438        3.0204947323        1.3273527234
 H         -3.5832124934        2.2484147119        2.4153929459
 H         -2.8208664457        3.2560844283        1.1786591770
 O         -3.0770948017        0.0703878276        1.6392691176
 C         -2.5682082840       -1.1945236884        1.4155200073
 O         -2.9603992748       -2.0581520640        2.2274919283
 H          0.5542237391       -1.4057925887        1.7020941260
 C          1.0817153393       -1.8977635470        0.8967546464
 C          0.3776344290       -2.6722037757       -0.0183169904
 C          1.0837359980       -3.2929337427       -1.0402746302
 C          2.4533170094       -3.1216915051       -1.1515811003
 C          3.1406224590       -2.3092601918       -0.2690710201
 C          2.4419565852       -1.6849231939        0.7579633334
 N          3.0826781126       -0.8159275874        1.6682751500
 S          2.6399335757        0.8008597221        1.6006293022
 O          3.4375645964        1.4515354404        2.6192827936
 O          1.2114697583        0.9288224757        1.7314750200
 C          3.1921211619        1.3445035305       -0.0072805437
 C          4.3948297128        2.0200268260       -0.0961794992
 C          4.8667688878        2.3911572629       -1.3443898487
 C          4.1357766866        2.0723663449       -2.4792196042
 C          2.9341615496        1.3899888229       -2.3719964830
 C          2.4522343111        1.0172391648       -1.1257443000
 H          1.5170459104        0.4880613444       -1.0226246814
 H          2.3611216612        1.1371359482       -3.2496119258
 H          4.5034367072        2.3574993269       -3.4523767820
 H          5.8006545052        2.9233321135       -1.4282080657
 H          4.9255399875        2.2475914884        0.8143154705
 H          4.0920442433       -0.8757212904        1.6417495913
 H          4.2035381933       -2.1509489162       -0.3741991991
 H          2.9881707428       -3.6099578970       -1.9518132876
 H          0.5607286455       -3.8940197775       -1.7656608198
 C         -1.1173454550       -2.7779343744        0.1668732665
 H         -1.3008601301       -3.2827189027        1.1306248542
 C         -1.8054634757       -3.6152103784       -0.9014377786
 C         -3.2145853268       -3.3247501051       -1.3222435962
 C         -2.0833790166       -3.0787022503       -2.2723186532
 H         -1.9719197558       -3.7437259067       -3.1161735388
 H         -1.7916948160       -2.0604408235       -2.4733896008
 H         -3.7052990846       -2.4726238887       -0.8739853145
 H         -3.8748298021       -4.1588400361       -1.5075625021
 H         -1.5372834061       -4.6647841781       -0.8309197356
 O         -0.4415434610       -0.4194518190       -1.4019373359
