  62
        -98.93911852
 C         -2.4788866178       -1.0419169760        0.3790350193
 C         -2.6569444914        0.1411467544        1.1441332592
 C         -3.9104183965        0.8719289266        0.9331419130
 C         -4.8262430125        0.3866243033        0.0757579388
 C         -6.1665453943        0.9974363271       -0.2312134667
 C         -6.1190855686        2.1030542717       -1.2946476212
 C         -5.4948066207        3.4210533466       -0.8347687712
 H         -5.7226614167        4.1671069101       -1.5985719593
 H         -5.9726885307        3.7452669403        0.0901429426
 C         -3.9731762397        3.3667532908       -0.6380249257
 H         -3.5136360765        4.2415527459       -1.1035760986
 H         -3.5696877071        2.4869249319       -1.1449649152
 C         -3.5225247528        3.3435909342        0.8228248625
 H         -2.4320982978        3.2658472716        0.8441855643
 H         -3.8026778981        4.2810963942        1.3084543553
 C         -4.0949692369        2.1794346207        1.6421845297
 H         -3.5498254265        2.1246145063        2.5877802765
 H         -5.1498728163        2.3514957342        1.8552196310
 H         -5.5763695560        1.7270960054       -2.1649134534
 H         -7.1477815874        2.3015380127       -1.6039510325
 H         -6.6078617044        1.3904566189        0.6850424242
 H         -6.7982434995        0.1881863336       -0.6034149579
 O         -4.6346735914       -0.7659588782       -0.6149143769
 C         -3.4572855132       -1.4941226234       -0.5071659889
 O         -3.4358842927       -2.5035982887       -1.2377087846
 O         -1.8083596496        0.5622344792        1.9764264399
 C         -1.1683768552       -1.7864596088        0.5693172262
 C         -0.1976482749       -1.4775783981       -0.5461893872
 C         -0.3872623967       -1.9631619491       -1.8363698436
 C          0.5301138651       -1.6789376831       -2.8310456852
 C          1.6578158409       -0.9246056601       -2.5588068038
 C          1.8493820129       -0.4236277400       -1.2765819461
 C          0.9191674619       -0.6971859178       -0.2832914246
 H          1.0767138977       -0.2938305798        0.7069206872
 N          2.9692319652        0.3674238037       -0.9748345100
 S          3.6715590900        0.2069367011        0.5528110637
 O          3.7109638398       -1.1872266149        0.9327227068
 O          3.0086115911        1.1015075180        1.4679263404
 C          5.3195598175        0.8009205076        0.2182232371
 C          6.3147250638       -0.1079881883       -0.0886314653
 C          7.5864910866        0.3621264828       -0.3761616578
 C          7.8395327778        1.7255203313       -0.3546665336
 C          6.8307810927        2.6254678893       -0.0440315506
 C          5.5571099153        2.1622023813        0.2454583961
 H          4.7443577558        2.8217726692        0.5019253882
 H          7.0320013550        3.6844203277       -0.0250335350
 H          8.8300313448        2.0890639265       -0.5781876015
 H          8.3735734287       -0.3349937746       -0.6144577878
 H          6.0737581987       -1.1589045304       -0.0833824305
 H          3.6616663710        0.3679134282       -1.7113465257
 H          2.3796316990       -0.7169532202       -3.3342185417
 H          0.3714606654       -2.0607614871       -3.8283850990
 H         -1.2669576591       -2.5488874426       -2.0527165017
 H         -0.7402345083       -1.3772973892        1.4953816120
 C         -1.3367247305       -3.2832581072        0.7437384906
 C         -0.2002509274       -4.0696185184        1.3228399281
 C         -1.4481400606       -3.8530679105        2.1241994683
 H         -2.1112204294       -4.6901359143        2.2833511825
 H         -1.4072325639       -3.1635792990        2.9551463232
 H         -0.0052115678       -5.0565402980        0.9322569043
 H          0.6895148006       -3.5254366079        1.6056192459
 H         -1.9273491341       -3.7473625933       -0.0349528946
