  62
        -98.94291318
 C         -2.6359535367       -1.1934287585        0.2456995031
 C         -2.7715457082       -0.3262387317       -0.8653631359
 C         -3.8044022458        0.7150084780       -0.7478315342
 C         -4.5572623875        0.7852918053        0.3641711701
 C         -5.6002961014        1.8295941843        0.6343525274
 C         -5.0010845143        3.0363603966        1.3701587028
 C         -3.7205503167        3.5755620966        0.7325958517
 H         -3.4071754927        4.4433657132        1.3168740179
 H         -2.9322149186        2.8247569318        0.8251883481
 C         -3.8660134457        3.9779274511       -0.7416960918
 H         -4.9202870083        4.1089019026       -0.9880603983
 H         -3.3759861662        4.9422632748       -0.8917014012
 C         -3.2332069704        2.9984112616       -1.7319748933
 H         -2.2021361183        2.7910417694       -1.4337481616
 H         -3.1990665899        3.4808067954       -2.7126135655
 C         -3.9634994195        1.6605738941       -1.9055480462
 H         -5.0199733689        1.8419518188       -2.1126792174
 H         -3.5266817606        1.1532128688       -2.7707545763
 H         -5.7529742533        3.8267813688        1.4054027365
 H         -4.7728924914        2.7378299974        2.3958883657
 H         -6.0417859169        2.1475865930       -0.3081176753
 H         -6.3778770155        1.3847941301        1.2575417907
 O         -4.4149809878       -0.0755650993        1.4027818188
 C         -3.4564034487       -1.0713660307        1.3735051064
 O         -3.4343317312       -1.7852608998        2.3957129058
 O         -2.0778380692       -0.3922967786       -1.9170172470
 C         -1.6226287934       -2.3268029441        0.3078943949
 C         -0.2361027540       -1.8231868765        0.6339412406
 C          0.4114558504       -2.2266276062        1.7958579261
 C          1.6899955291       -1.7802399331        2.0808891013
 C          2.3461911171       -0.9203563426        1.2183888893
 C          1.7073233525       -0.5097100790        0.0557273103
 C          0.4284966238       -0.9659635498       -0.2313637955
 H         -0.0656160948       -0.6410332142       -1.1351603841
 N          2.3509497609        0.3848846443       -0.8166062980
 S          3.9213701217        0.0427722660       -1.2971563196
 O          4.0951639609        0.7376996798       -2.5539160424
 O          4.1756643682       -1.3793948844       -1.3091953871
 C          4.9290459351        0.8311305477       -0.0584122616
 C          5.8995840565        0.1053249134        0.6039257713
 C          6.6832258302        0.7436240866        1.5528056619
 C          6.4840265962        2.0893611995        1.8200540691
 C          5.5060749443        2.8046130808        1.1447970200
 C          4.7203249703        2.1728491963        0.1942339287
 H          3.9523478260        2.6929183454       -0.3539172539
 H          5.3537394135        3.8508655003        1.3559013720
 H          7.0943234300        2.5841671165        2.5589819801
 H          7.4439601383        0.1894559500        2.0787705062
 H          6.0143520099       -0.9404306945        0.3670474637
 H          1.7821579024        0.6487117821       -1.6086093638
 H          3.3413666254       -0.5683318367        1.4362548799
 H          2.1806334079       -2.1030109747        2.9864653272
 H         -0.0991958260       -2.8875283209        2.4812271997
 H         -1.9487763204       -2.9646759639        1.1401252842
 C         -1.6007348676       -3.1683525343       -0.9545482571
 C         -1.0745936836       -4.5688380182       -0.8840625896
 C         -2.5408220945       -4.3272759975       -1.0801559841
 H         -2.9759156914       -4.5351501235       -2.0461887666
 H         -3.2052855633       -4.5233019496       -0.2509697603
 H         -0.4975588467       -4.9442342893       -1.7153704201
 H         -0.7452774099       -4.9316998331        0.0778648976
 H         -1.3944178761       -2.5978346219       -1.8504960816
