  62
        -98.93771221
 C          2.4078203994        1.1284469188        0.0288995210
 C          3.3823627323        0.6196834953        0.9263521465
 C          4.3949882448       -0.2972304986        0.3769026732
 C          4.3522317289       -0.6140895071       -0.9303149126
 C          5.2588545825       -1.4783799955       -1.7815491218
 C          6.2918448877       -2.3973840991       -1.1352270945
 C          5.7016144082       -3.5783613619       -0.3648024249
 H          5.2618719707       -4.2750423210       -1.0830140568
 H          6.5169539828       -4.0967265471        0.1443195789
 C          4.6212646484       -3.2276620562        0.6553073072
 H          3.7636422687       -2.7844269364        0.1448878476
 H          4.2769689226       -4.1599468769        1.1111210844
 C          5.0631910445       -2.2964311906        1.7821833874
 H          5.9381133835       -2.7149671211        2.2833603785
 H          4.2491747918       -2.2518765082        2.5107122952
 C          5.3849270011       -0.8529954430        1.3599300052
 H          6.3978485814       -0.7707645840        0.9732047207
 H          5.3209567258       -0.2192684952        2.2492112751
 H          6.9614618458       -1.8230729725       -0.5018933214
 H          6.8983626477       -2.8047939130       -1.9486878323
 H          4.5945468470       -2.0750178544       -2.4149816668
 H          5.7812864639       -0.7866194576       -2.4516228029
 O          3.3982377721       -0.0983117532       -1.7576506730
 C          2.4115971191        0.7679844100       -1.3167965974
 O          1.6291219138        1.1209181181       -2.2236613340
 O          3.4148002381        0.9339986914        2.1458150115
 C          1.3846332499        2.0897670968        0.6094582951
 C          0.0565425845        1.4195744803        0.8719837643
 C         -0.4545353490        1.3356839036        2.1619141890
 C         -1.6849452350        0.7468308273        2.3957183669
 C         -2.4276453121        0.2262386246        1.3512975475
 C         -1.9241413099        0.3009799909        0.0590918083
 C         -0.6940355251        0.8996579465       -0.1730567738
 H         -0.3061435127        0.9521675860       -1.1798027432
 N         -2.6578911410       -0.2485398606       -1.0078477112
 S         -4.2585024542        0.2249107431       -1.1877748885
 O         -4.5674863939        0.0071850054       -2.5841671630
 O         -4.4764283659        1.5610244436       -0.6827449121
 C         -5.1651189013       -0.9517571513       -0.2054470021
 C         -4.9733834868       -2.2961787626       -0.4574767334
 C         -5.6812268169       -3.2241789029        0.2894787204
 C         -6.5661426267       -2.7947943047        1.2675748224
 C         -6.7496961241       -1.4414754001        1.5062308072
 C         -6.0437350698       -0.5078479037        0.7633413498
 H         -6.1487758520        0.5541848032        0.9175500642
 H         -7.4379594102       -1.1096992807        2.2669045804
 H         -7.1157032155       -3.5196603898        1.8471076335
 H         -5.5406835231       -4.2774542724        0.1071349514
 H         -4.2781836654       -2.5875273843       -1.2272811773
 H         -2.1713097321       -0.1959261658       -1.8916940232
 H         -3.3859935715       -0.2346654140        1.5268745669
 H         -2.0694589339        0.6902413105        3.4025731970
 H          0.1248394611        1.7287012218        2.9846159187
 H          1.8006227513        2.3932816355        1.5795741342
 C          1.1908150928        3.3339759625       -0.2365938306
 C          0.6386199503        4.5701292378        0.4046290990
 C          2.0772207194        4.5205093073       -0.0130046072
 H          2.3888105433        5.0987220823       -0.8699219146
 H          2.8295893838        4.4432406988        0.7583351175
 H         -0.0434067959        5.1835393894       -0.1640604700
 H          0.4155504847        4.5285876252        1.4599493122
 H          0.8949892314        3.1208547284       -1.2558633666
