  62
        -98.92574007
 C          2.3541833306        0.3463369053        0.7302825297
 C          2.2247523319       -0.3682874210       -0.4829010373
 C          1.8281345976       -1.7850951830       -0.3744124122
 C          1.6044424095       -2.3119167967        0.8417812000
 C          1.1250119068       -3.6949845869        1.2064437994
 C          1.7132969802       -4.8789980095        0.4246286240
 C          0.7220630793       -5.5179412494       -0.5499341690
 H          1.0217946689       -6.5540485727       -0.7227105443
 H         -0.2624039869       -5.5365487879       -0.0778918632
 C          0.6140850339       -4.8361343087       -1.9125432877
 H          1.5221027251       -5.0319656707       -2.4870304097
 H         -0.2172099723       -5.2998517761       -2.4485983061
 C          0.3894376144       -3.3233732177       -1.8745424488
 H         -0.3282684892       -3.0504424843       -1.1002941751
 H         -0.0489488897       -3.0250453730       -2.8294487895
 C          1.6823447992       -2.5165458617       -1.6802832664
 H          2.5536248976       -3.1601174158       -1.8306907307
 H          1.7439501230       -1.7328003001       -2.4414735104
 H          2.6157149317       -4.5668805465       -0.0978324342
 H          2.0062884474       -5.6392163222        1.1507277787
 H          1.3552280082       -3.8014372831        2.2694834154
 H          0.0342247676       -3.6979054272        1.1246561804
 O          1.7609858508       -1.5875432983        1.9891961774
 C          2.1075447149       -0.2509664913        1.9631311389
 O          2.1755169454        0.2881584455        3.0893600742
 H          0.1038048317        1.5729548350        1.0479504014
 C          0.2886694688        2.1572998684        0.1564406919
 C          1.6024286787        2.4632279119       -0.1974327827
 C          1.7979018520        3.2309599668       -1.3368384795
 C          0.7178882224        3.6374008145       -2.1056162430
 C         -0.5737632639        3.2745471409       -1.7804476515
 C         -0.7868754684        2.5197500052       -0.6315781067
 N         -2.0815590276        2.1253377011       -0.2481920663
 S         -2.2555997857        0.6365138092        0.5326343186
 O         -2.0271205240        0.8293641033        1.9443790037
 O         -1.4628379129       -0.3824146614       -0.1161684257
 C         -3.9928799499        0.3424265963        0.2525181234
 C         -4.3873000600       -0.5615546705       -0.7151148810
 C         -5.7416847645       -0.7535064299       -0.9410954888
 C         -6.6728321354       -0.0388626216       -0.2028914939
 C         -6.2616375319        0.8652405850        0.7656235165
 C         -4.9095634322        1.0599268468        0.9982428729
 H         -4.5414970450        1.7428298327        1.7460410506
 H         -6.9880786087        1.4173841508        1.3396257206
 H         -7.7257604274       -0.1890216613       -0.3816320452
 H         -6.0634892790       -1.4579882394       -1.6909635457
 H         -3.6263641035       -1.0962994838       -1.2608537975
 H         -2.7586921173        2.2341967838       -0.9912369406
 H         -1.4057236159        3.5631445527       -2.4044139005
 H          0.8959580771        4.2263615171       -2.9927926219
 H          2.7848073656        3.4994343724       -1.6662250801
 C          2.6364699830        1.8461221072        0.7170497210
 H          2.3958880930        2.1894727337        1.7381832583
 C          4.1285513522        2.0785785228        0.5444928001
 C          4.8573670980        2.1231110122       -0.7615493162
 C          4.7614116109        3.3581216335        0.0856149776
 H          5.6530875224        3.6844739511        0.6005440860
 H          4.1226598416        4.1681616532       -0.2251264207
 H          5.8105680615        1.6171449482       -0.8175769320
 H          4.2758062085        2.0352618460       -1.6642019667
 H          4.6483568363        1.5643479001        1.3511363798
 O          2.4174196626        0.1491372992       -1.6131989910
