  62
        -98.94273197
 C          2.0079388794        0.3513783501       -0.1821803796
 C          2.7701776393       -0.7468175603        0.2870861998
 C          4.1455036192       -0.4407608306        0.7116482402
 C          4.5883304493        0.8280069394        0.6722509912
 C          5.9782681093        1.2658763391        1.0300570317
 C          6.8965261595        1.2606437999       -0.2002503482
 C          6.8325639696       -0.0317200396       -1.0144457690
 H          5.8382531296       -0.1248825193       -1.4572463593
 H          7.5425223197        0.0682268309       -1.8384087688
 C          7.1524179494       -1.3026973202       -0.2152100498
 H          7.8277072194       -1.9260742698       -0.8051260201
 H          7.6757072492       -1.0395366308        0.7047485404
 C          5.9334285693       -2.1626194903        0.1234010394
 H          6.2906727491       -3.1287383706        0.4897122388
 H          5.3545426494       -2.3505505097       -0.7843030708
 C          4.9890494991       -1.5902267310        1.1877633596
 H          4.2872796790       -2.3808884111        1.4683729490
 H          5.5608076290       -1.3077587316        2.0738696999
 H          6.6077084196        2.0894757403       -0.8508857877
 H          7.9215244494        1.4324848796        0.1334365021
 H          5.9267697193        2.2801539488        1.4295612724
 H          6.3765740491        0.6039175785        1.7965791513
 O          3.8185220994        1.8634248897        0.2499462617
 C          2.5278943395        1.6497370901       -0.1996751486
 O          1.9472699196        2.6840391204       -0.5886454180
 H         -1.6848892004        1.6625839105       -0.5584512793
 C         -1.5719821806        0.9909272600        0.2790259102
 C         -0.4500367507        0.1808572099        0.3806424599
 C         -0.3399150009       -0.6727042609        1.4732739093
 C         -1.3221715111       -0.6967037015        2.4463895992
 C         -2.4472763010        0.1013019387        2.3332803395
 C         -2.5755926808        0.9435858494        1.2365322400
 N         -3.7263914907        1.7399006296        1.0567316604
 S         -4.6448375605        1.4114950405       -0.3075870800
 O         -3.8898065003        1.7286994113       -1.4914775997
 O         -5.8817988705        2.1348468605       -0.1170894097
 C         -4.9432927106       -0.3452176395       -0.2087000112
 C         -3.9758049706       -1.2186410793       -0.6650489116
 C         -4.1730227907       -2.5801857994       -0.4966054426
 C         -5.3258791808       -3.0426962597        0.1190227369
 C         -6.2901694708       -2.1525026700        0.5670595073
 C         -6.0959314307       -0.7898064099        0.4093611983
 H         -6.8187614807       -0.0620523900        0.7414147187
 H         -7.1874742109       -2.5151630102        1.0421173770
 H         -5.4727188309       -4.1033037998        0.2489875162
 H         -3.4206417706       -3.2710590692       -0.8417872629
 H         -3.0908545005       -0.8285099590       -1.1403674012
 H         -4.3303186808        1.7648349691        1.8670933903
 H         -3.2198645911        0.0735563082        3.0869763793
 H         -1.2173217812       -1.3551930620        3.2950759287
 H          0.5197578491       -1.3194946610        1.5503930990
 C          0.5904223395        0.2200620005       -0.7134394199
 H          0.4110241197        1.1307745509       -1.3017714293
 C          0.4069365496       -0.9772325789       -1.6292388907
 C         -0.6684906802       -0.9385983781       -2.6713151809
 C          0.7727619699       -0.8527737979       -3.0758609206
 H          1.2237251899       -1.7007761476       -3.5688977811
 H          1.1508258000        0.1011519723       -3.4152808099
 H         -1.2062467702       -1.8482535279       -2.8923565816
 H         -1.2693658102       -0.0430113080       -2.7467555204
 H          0.6090630295       -1.9218101492       -1.1413923613
 O          2.3461956792       -1.9301526303        0.3635731289
