  62
        -98.94314004
 C         -1.8728467397       -1.1487205005        0.3320325287
 C         -2.4329372800       -0.1462782912        1.1658680593
 C         -3.8438387700        0.1857256087        0.9310970494
 C         -4.5212419598       -0.4717700207       -0.0274134211
 C         -5.9471367698       -0.2031539707       -0.4104992610
 C         -6.0337070699        0.8385168000       -1.5345460204
 C         -5.2048647701        2.0966909800       -1.2754957194
 H         -4.1444980201        1.8330384102       -1.2764823095
 H         -5.3676675301        2.7730079305       -2.1174756590
 C         -5.5439252003        2.8214047791        0.0346254010
 H         -5.6105474905        3.8930052692       -0.1649483383
 H         -6.5209239203        2.4978425587        0.3954627707
 C         -4.5088027104        2.6400773485        1.1466453910
 H         -4.7307257706        3.3605837779        1.9386115814
 H         -3.5122249904        2.8746820789        0.7629857912
 C         -4.4608064902        1.2501748181        1.7939522401
 H         -5.4641620702        0.9568653077        2.1099018198
 H         -3.8271616503        1.3201972976        2.6831223202
 H         -7.0812984099        1.1127667100       -1.6711453303
 H         -5.6783009297        0.3797726407       -2.4600016006
 H         -6.3912846296       -1.1373934405       -0.7579730817
 H         -6.4931781299        0.1444130486        0.4643315192
 O         -3.9595752596       -1.4377872901       -0.7938474217
 C         -2.6261403395       -1.7969195100       -0.6476440718
 O         -2.2652188093       -2.6928438894       -1.4332428123
 O         -1.7830759101        0.4383130183        2.0748146298
 C         -0.4079179897       -1.4935730305        0.5510660486
 C          0.4377719303       -0.8765154196       -0.5372261509
 C          0.5577641905       -1.4513725688       -1.7986614513
 C          1.3165437705       -0.8372390180       -2.7779170108
 C          1.9861300903        0.3453605219       -2.5167448800
 C          1.8724426201        0.9289684111       -1.2611768696
 C          1.0983088901        0.3186676703       -0.2839413101
 H          1.0039677999        0.7947317797        0.6811998402
 N          2.5455244799        2.1287961410       -0.9610497787
 S          3.5227407097        2.1568925003        0.3993367314
 O          2.7185068096        2.1847627093        1.5931249013
 O          4.4049623996        3.2846379205        0.1940171622
 C          4.4423711900        0.6322141205        0.2989041004
 C          4.0116794201       -0.4742692601        1.0021072697
 C          4.6912208603       -1.6721484999        0.8457996389
 C          5.7812764404       -1.7423852291       -0.0075882110
 C          6.2048232903       -0.6203898186       -0.7036510902
 C          5.5272577801        0.5785149212       -0.5545020795
 H          5.8287043100        1.4764153916       -1.0694031289
 H          7.0562054403       -0.6776968380       -1.3624684302
 H          6.3045501006       -2.6777457290       -0.1276841116
 H          4.3647334704       -2.5460662903        1.3867866083
 H          3.1620500100       -0.3759689706        1.6584887597
 H          3.0407918099        2.5239350216       -1.7481985984
 H          2.5835463403        0.8199871925       -3.2804755996
 H          1.3937942507       -1.2893228273       -3.7549792511
 H          0.0244958807       -2.3624198887       -2.0162960319
 H         -0.1421448199       -0.9999419410        1.4961296290
 C         -0.1659270595       -2.9814337105        0.7031217677
 C          1.0848077505       -3.4454530808        1.3846743575
 C         -0.2405889895       -3.5948320014        2.0678375572
 H         -0.6658027094       -4.5824461116        2.1653187766
 H         -0.4646056397       -2.9408431320        2.8984132677
 H          1.5756184807       -4.3318485105        1.0140747769
 H          1.7572189604       -2.6862389309        1.7543322080
 H         -0.5430641293       -3.5707726500       -0.1218151328
