  62
        -98.93782084
 C          2.1546846506        0.9062247496        0.7628065304
 C          1.8932944803        0.1862162095       -0.4310136495
 C          2.1471676599       -1.2617594706       -0.3765734994
 C          2.5678615299       -1.8197885705        0.7721204107
 C          2.9069513195       -3.2705651506        0.9513523608
 C          4.3876993494       -3.5416755110        0.6497550807
 C          4.8686963095       -2.9480004313       -0.6741172794
 H          4.8308999298       -1.8582106613       -0.6108127995
 H          5.9174163494       -3.2275913216       -0.7940434594
 C          4.0725552893       -3.4091286912       -1.9028102092
 H          3.5077047591       -4.3104509111       -1.6623594491
 H          4.7734990492       -3.6673310515       -2.6991851693
 C          3.1208647295       -2.3549020511       -2.4715217793
 H          3.6621353197       -1.4188070412       -2.6303181594
 H          2.7717674593       -2.7003953011       -3.4481859392
 C          1.8781061996       -2.0547138406       -1.6239554892
 H          1.1975247898       -1.4426559705       -2.2244400793
 H          1.3617246994       -2.9857269905       -1.3788315091
 H          4.5451767891       -4.6216389011        0.6448018209
 H          4.9882620696       -3.1136532911        1.4556341207
 H          2.6989749895       -3.5451766204        1.9869752909
 H          2.2741999393       -3.8657000405        0.2953347909
 O          2.7724180702       -1.1042777205        1.9080924406
 C          2.5493231405        0.2627494996        1.9373142004
 O          2.7262058607        0.7846138797        3.0573312204
 H         -0.3828597993        1.1895053503        1.5310056005
 C         -0.5561048992        1.9095868303        0.7383143805
 C          0.5104399610        2.6641543699        0.2641696203
 C          0.2708136812        3.5719848999       -0.7579652698
 C         -0.9938254688        3.6908562201       -1.3096569997
 C         -2.0414047390        2.9068200205       -0.8619217195
 C         -1.8143737092        2.0130438705        0.1737963906
 N         -2.8747777494        1.1626041308        0.6026025107
 S         -2.9038216898       -0.2673545293       -0.3105526391
 O         -1.9251805100       -1.2020389194        0.2085625509
 O         -2.8046331698        0.0788952106       -1.7041514192
 C         -4.5477697399       -0.8625669688        0.0427758011
 C         -5.6113734898       -0.2791617486       -0.6182093589
 C         -6.8966970999       -0.7085626182       -0.3300184888
 C         -7.0964379601       -1.7078848181        0.6110000214
 C         -6.0190646202       -2.2839571983        1.2663836114
 C         -4.7308046701       -1.8575195286        0.9828637212
 H         -3.8628953302       -2.2826508588        1.4613125312
 H         -6.1759609704       -3.0623510881        1.9957657715
 H         -8.0976093402       -2.0416354678        0.8335685715
 H         -7.7367658198       -0.2644671281       -0.8391606988
 H         -5.4053670497        0.4867251713       -1.3472165490
 H         -2.7400449694        0.8797488909        1.5662068307
 H         -3.0190545090        2.9599425407       -1.3115923295
 H         -1.1588111787        4.3900049101       -2.1153866498
 H          1.0835100013        4.1603388396       -1.1517495999
 C          1.8665942210        2.3964058197        0.8703353702
 H          1.7981830711        2.5929395998        1.9535906202
 C          2.9669236012        3.2992790893        0.3353966801
 C          4.3915648111        2.8346076189        0.2968071800
 C          3.6391645210        3.0506699390       -0.9800132000
 H          3.9018453812        3.9033445688       -1.5890978601
 H          3.3204599308        2.1905344290       -1.5467897198
 H          4.5936146408        1.8197354689        0.6080283101
 H          5.1671429413        3.5360931388        0.5651908899
 H          2.8095642015        4.3365502094        0.6144699399
 O          1.4715976404        0.7140939095       -1.4922368895
