  62
        -98.93945604
 C         -1.2077260302       -1.7423493802       -0.1378297610
 C         -1.4559378600       -0.5971169397       -0.9334972204
 C         -2.8158662199       -0.0281052195       -0.8520399602
 C         -3.7202001401       -0.5703217499       -0.0208397206
 C         -5.1568996900       -0.1686188498        0.2017981794
 C         -5.4671998498        1.3315964102        0.2969505202
 C         -4.3525383498        2.1908075097        0.9122993309
 H         -4.7769761198        2.8081660293        1.7065564312
 H         -3.5906215699        1.5556049093        1.3680217906
 C         -3.6888836795        3.1240626202       -0.1031490585
 H         -4.4662074694        3.5707980606       -0.7280718184
 H         -3.1933974795        3.9351162698        0.4363318720
 C         -2.6331803795        2.4758891105       -0.9985124888
 H         -2.3461727293        3.2092819209       -1.7573470183
 H         -1.7358201196        2.2628309301       -0.4105102388
 C         -3.0684265396        1.1818738010       -1.7052345096
 H         -4.1085434396        1.2387787313       -2.0189236597
 H         -2.4427375795        1.0606365714       -2.5938906596
 H         -5.7041301997        1.7183211008       -0.6933423996
 H         -6.3734699099        1.4290164200        0.8971043302
 H         -5.7608490500       -0.6085743092       -0.5972447009
 H         -5.4469478002       -0.6621667303        1.1325492191
 O         -3.4299758703       -1.6534861804        0.7546362488
 C         -2.1882092604       -2.2601042905        0.7117341586
 O         -2.0791155806       -3.2502435109        1.4643757380
 O         -0.6129706598       -0.0616128494       -1.6977216300
 C          0.1219840297       -2.4764076904       -0.0912711713
 C          1.0323427396       -1.9066505811        0.9710416592
 C          1.7551410394       -2.7438016617        1.8131647488
 C          2.6134509394       -2.2159367724        2.7605395192
 C          2.7789418395       -0.8475923624        2.8750679900
 C          2.0575894898       -0.0013572819        2.0395629204
 C          1.1884539998       -0.5348362012        1.0980795100
 H          0.6203302700        0.1303109992        0.4679602003
 N          2.1993186000        1.3864580581        2.1372630212
 S          1.8768180103        2.3832369988        0.8391355717
 O          2.6219903404        3.5911163386        1.1357536225
 O          0.4542587003        2.5569773091        0.6912384716
 C          2.5832839203        1.5877806896       -0.5929087586
 C          3.8223854702        0.9880333293       -0.4784231088
 C          4.3741675203        0.3729540999       -1.5896095091
 C          3.6845709104        0.3733926707       -2.7926523592
 C          2.4493163205        0.9924102409       -2.8940894290
 C          1.8902511205        1.6074665803       -1.7848074387
 H          0.9170553005        2.0686743705       -1.8210919386
 H          1.9063271506        0.9886900515       -3.8254905191
 H          4.1115225704       -0.1125592889       -3.6559934494
 H          5.3354721902       -0.1089823503       -1.5129212393
 H          4.3383975901        1.0011677587        0.4676767312
 H          2.9537224299        1.7177797976        2.7185822815
 H          3.4506602895       -0.4329881930        3.6108796403
 H          3.1637231092       -2.8753962028        3.4140190589
 H          1.6275678793       -3.8127634216        1.7327458282
 H         -0.1173285905       -3.5102866705        0.1954574681
 C          0.8646266198       -2.5031152797       -1.4141982112
 C          1.8158590897       -3.6245582097       -1.6988602417
 C          0.5147639798       -3.5386757391       -2.4378335518
 H          0.5238016700       -3.2541839785       -3.4788999117
 H         -0.2627101103       -4.2458763291       -2.1865620423
 H          2.7257855098       -3.3997220395       -2.2329008215
 H          1.9217896095       -4.3980203201       -0.9536645721
 H          1.1277676700       -1.5170794996       -1.7737795306
