  62
        -98.93106572
 C         -2.4911802592       -1.2691965201       -0.1237166936
 C         -2.6439971818        0.0770658057       -0.5247484895
 C         -3.9890591098        0.6638181941       -0.3631755725
 C         -4.9699226229       -0.0850791394        0.1719217228
 C         -6.4090869113        0.2850046459        0.4286614037
 C         -6.6666114499        1.6695823436        1.0431136372
 C         -7.3127287071        2.6567985405        0.0694511800
 H         -8.0562406089        2.1218221127       -0.5250645424
 H         -7.8431080697        3.4185283843        0.6453070625
 C         -6.3422373596        3.3772757880       -0.8648753304
 H         -5.7627765700        4.1049219100       -0.2924614101
 H         -6.9368236814        3.9353295513       -1.5920410056
 C         -5.3670998122        2.4719567758       -1.6200846737
 H         -5.0322143669        3.0105525954       -2.5091100420
 H         -5.8720572482        1.5706831505       -1.9657640301
 C         -4.1205373027        2.0957814359       -0.8050434674
 H         -3.2210522907        2.2830644918       -1.3998874202
 H         -4.0377281760        2.7438197064        0.0723474663
 H         -7.3453287929        1.5374915322        1.8873564154
 H         -5.7378575859        2.0785674587        1.4380492388
 H         -6.9640188050        0.1862220521       -0.5076264970
 H         -6.7859621016       -0.4930170566        1.0964882508
 O         -4.7709164531       -1.3799574804        0.5546761452
 C         -3.5442124956       -2.0017498115        0.4206749682
 O         -3.5163839351       -3.1839155443        0.8195865826
 O         -1.7048176734        0.7641535311       -1.0054419211
 C         -1.1432185972       -1.9554374888       -0.2567694749
 C         -0.1154344175       -1.2077741634        0.5583194407
 C         -0.3653807593       -1.0040165929        1.9132083667
 C          0.5386309035       -0.3227265375        2.7044582486
 C          1.7106753401        0.1762749105        2.1628961183
 C          1.9731851524       -0.0262707849        0.8156320549
 C          1.0683484384       -0.7263336659        0.0246714977
 H          1.2872770588       -0.8763018785       -1.0209489433
 N          3.1494500718        0.4958112675        0.2480277391
 S          4.5879222175        0.3211980216        1.1145455669
 O          4.7345239222       -1.0461523290        1.5628616449
 O          4.6315127463        1.3280311267        2.1450479651
 C          5.7873415035        0.6971461919       -0.1484557409
 C          6.0613742272        2.0224711201       -0.4283251088
 C          6.9726765909        2.3207307104       -1.4286961999
 C          7.5906252977        1.2950592064       -2.1287991613
 C          7.3069231802       -0.0302410392       -1.8350300474
 C          6.3953783800       -0.3356884735       -0.8365051333
 H          6.1515346023       -1.3512558787       -0.5684114868
 H          7.7917115846       -0.8251023028       -2.3786952336
 H          8.3001279281        1.5301031828       -2.9064318014
 H          7.1981410838        3.3496857583       -1.6582339792
 H          5.5641809129        2.7854397963        0.1474831378
 H          3.2678165129        0.2062272403       -0.7133262303
 H          2.4235299929        0.7123483906        2.7683272425
 H          0.3299493132       -0.1737802583        3.7536378460
 H         -1.2840083544       -1.3884649193        2.3366390022
 H         -1.2667261781       -2.9531075427        0.1890805398
 C         -0.7778251661       -2.1161989570       -1.7171765083
 C          0.1544726300       -3.2094990227       -2.1428413085
 C         -1.3057451340       -3.3003367822       -2.4675025905
 H         -1.6166782389       -3.1644076160       -3.4924169334
 H         -1.9123204496       -4.0053249107       -1.9176663794
 H          0.8449464748       -3.0155518342       -2.9498745705
 H          0.5446231448       -3.8602016744       -1.3747112033
 H         -0.7364112043       -1.1698002001       -2.2437720302
