  62
        -98.94754574
 C          1.3316291628       -1.6314082450        0.5015793226
 C          1.1900034182       -0.3212576222        1.0238459521
 C          2.3759978091        0.5441364390        0.9177998526
 C          3.5047277035        0.0660486099        0.3662731432
 C          4.7722671369        0.8466615298        0.1736604646
 C          4.8148615871        1.5174055318       -1.2056107076
 C          3.5478937617        2.2998924129       -1.5516935922
 H          2.7114188505        1.6058883395       -1.6689244473
 H          3.7093945889        2.7687399104       -2.5251951413
 C          3.1643403310        3.3738767449       -0.5247233180
 H          2.8858012743        4.2838465965       -1.0607552665
 H          4.0243294958        3.6153435700        0.1018175345
 C          1.9739252837        2.9979504517        0.3600623791
 H          1.1582646456        2.6371227033       -0.2731915783
 H          1.6301287010        3.9055117635        0.8655910708
 C          2.2510839843        1.9464993182        1.4429363300
 H          1.3948933114        1.9348197027        2.1237853867
 H          3.1408184159        2.2280814906        2.0106700265
 H          4.9566395925        0.7439495380       -1.9639874985
 H          5.6766461846        2.1868987194       -1.2374598038
 H          5.6140175549        0.1567657724        0.2570848663
 H          4.8518366975        1.5978547411        0.9569913706
 O          3.6092684706       -1.1988627528       -0.1150440898
 C          2.5288117839       -2.0619609422       -0.0784699965
 O          2.7596099015       -3.1843009580       -0.5744637714
 O          0.1458051099        0.1248875922        1.5686130525
 C          0.2102200656       -2.6611053666        0.4929897879
 C         -0.7160152659       -2.4147177290       -0.6734488477
 C         -0.9037652414       -3.3728099515       -1.6626541240
 C         -1.7403790498       -3.1181550313       -2.7353106390
 C         -2.3907719638       -1.9023999709       -2.8493014811
 C         -2.2074746394       -0.9382244933       -1.8643703084
 C         -1.3902470004       -1.2070325627       -0.7775317907
 H         -1.2458484326       -0.4533682867       -0.0220811086
 N         -2.8567785097        0.3023926622       -1.9293192465
 S         -2.0936658264        1.6726378631       -1.3383021288
 O         -2.7883229648        2.7710886658       -1.9828864686
 O         -0.6679975012        1.6287082943       -1.5698515355
 C         -2.4792183771        1.7208539269        0.3991961817
 C         -3.5028038098        0.9483574262        0.9083935731
 C         -3.8009034956        1.0411193716        2.2584871357
 C         -3.0809081832        1.9029912906        3.0703512424
 C         -2.0621887596        2.6781483798        2.5406362258
 C         -1.7582204821        2.5890591342        1.1923411141
 H         -0.9651981275        3.1666622165        0.7459200062
 H         -1.4979484080        3.3456168081        3.1725219387
 H         -3.3110420298        1.9675728814        4.1224072972
 H         -4.5903892851        0.4347487412        2.6732299425
 H         -4.0379154110        0.2772877821        0.2570261385
 H         -3.3633728516        0.4876086518       -2.7822405536
 H         -3.0302329524       -1.6972275443       -3.6944461956
 H         -1.8780913930       -3.8693551824       -3.4983564913
 H         -0.3747537400       -4.3123761407       -1.5964736902
 H          0.6997566719       -3.6316778315        0.3343880655
 C         -0.5669272862       -2.7215275235        1.7939357128
 C         -1.3263674555       -3.9690773226        2.1269669182
 C         -0.0872737545       -3.6179752528        2.8936695309
 H         -0.1865406976       -3.2787078764        3.9136311672
 H          0.8068744740       -4.1970161023        2.7121657643
 H         -2.2806631264       -3.8733856883        2.6211826061
 H         -1.2724616669       -4.7901975456        1.4281425056
 H         -1.0014885606       -1.7728196420        2.0789641828
