  62
        -98.94087216
 C          1.0439995013        1.5603893970        0.2070745916
 C          1.3458504384        0.5600145128       -0.7440000188
 C          2.3930933133       -0.4175691344       -0.3810012677
 C          2.9598140647       -0.3481756120        0.8371724409
 C          4.0656089828       -1.1930962398        1.4137963681
 C          5.4446922226       -0.8281931307        0.8453637799
 C          5.4892662072       -0.6920490620       -0.6737523343
 H          6.4984796154       -0.3741901387       -0.9485903417
 H          4.8056505352        0.1004669725       -0.9826023973
 C          5.1727747539       -1.9687160846       -1.4501924434
 H          5.8521196859       -2.7614491152       -1.1295989540
 H          5.3791556232       -1.7633387583       -2.5037091197
 C          3.7330375618       -2.4811872093       -1.3437116273
 H          3.5763418797       -3.0370580179       -0.4233562037
 H          3.5804595003       -3.1896208915       -2.1629576134
 C          2.6655750836       -1.4025021179       -1.4917143350
 H          1.7015914872       -1.8848976864       -1.6917510072
 H          2.8790215287       -0.8072871958       -2.3869595625
 H          6.1602727563       -1.5872272189        1.1665464036
 H          5.7507353207        0.1277441111        1.2776064132
 H          3.8627380958       -2.2484477280        1.2596821391
 H          4.0731419742       -1.0056523578        2.4899327391
 O          2.5910458238        0.5952616152        1.7495935962
 C          1.6576293596        1.5665787599        1.4639752980
 O          1.4548272371        2.3731837157        2.3935705415
 O          0.7916131005        0.4602668896       -1.8730277601
 C          0.0505983003        2.6877669769       -0.0355101597
 C         -1.3685221122        2.2118840488        0.1550475398
 C         -2.1766239623        2.7406146410        1.1543957207
 C         -3.4670675969        2.2738114307        1.3411988310
 C         -3.9729384992        1.2611824554        0.5449343790
 C         -3.1668824195        0.7211504949       -0.4481970612
 C         -1.8837303009        1.2050795982       -0.6491373680
 H         -1.2615545716        0.7749622606       -1.4200090576
 N         -3.6478939687       -0.3633759229       -1.2218536782
 S         -3.7314829809       -1.8097633099       -0.3809202761
 O         -4.0316425494       -2.8259923233       -1.3630010482
 O         -4.6805124330       -1.6582220254        0.6923094764
 C         -2.0995043848       -2.0796476634        0.2923315025
 C         -1.2587822482       -2.9808198926       -0.3288217051
 C          0.0106289674       -3.1814142507        0.1883240617
 C          0.4239020268       -2.4618209335        1.2985989162
 C         -0.4243503045       -1.5452330910        1.8993137995
 C         -1.7023704195       -1.3556031667        1.3994544119
 H         -2.3913590402       -0.6662243379        1.8598208452
 H         -0.0931586143       -0.9731317281        2.7523940585
 H          1.4111226686       -2.6144760920        1.7039710420
 H          0.6731365682       -3.8960498960       -0.2732911267
 H         -1.6198022019       -3.5167719844       -1.1921308629
 H         -3.0976629752       -0.5114176154       -2.0578454014
 H         -4.9622770013        0.8615863209        0.6969266994
 H         -4.0827791073        2.6966335677        2.1205502427
 H         -1.7812270970        3.5116876611        1.7995857492
 H          0.2596183834        3.4352941376        0.7412513259
 C          0.2250999635        3.3454627310       -1.3912343551
 C         -0.2812706372        4.7406254564       -1.5920193863
 C          1.1934850220        4.4786695092       -1.5362905755
 H          1.7677629689        4.5524842659       -2.4475955979
 H          1.7341946000        4.7904800328       -0.6542377957
 H         -0.7229045862        4.9965082940       -2.5428621160
 H         -0.7400344488        5.2332750444       -0.7480760923
 H          0.1420328067        2.6543140402       -2.2193852397
