  62
        -98.93153879
 C          2.2136128883        0.6558392502       -0.2138800146
 C          3.5292996130        1.1376584409       -0.4188884821
 C          4.6327382255        0.3814847453        0.2043683556
 C          4.3314972384       -0.6875060695        0.9642237690
 C          5.2736682082       -1.6309494986        1.6637476473
 C          5.9458978464       -2.6207096141        0.6987869316
 C          6.4607302315       -2.0036498742       -0.5989578099
 H          6.8151589432       -2.8185239156       -1.2357588673
 H          5.6307947612       -1.5239036903       -1.1211540669
 C          7.6048785246       -1.0056523374       -0.4368629114
 H          7.9305245696       -0.7212323259       -1.4406961923
 H          8.4442106445       -1.5008459143        0.0563360026
 C          7.2736110033        0.2739993182        0.3341737167
 H          8.0877659227        0.9819675122        0.1539040980
 H          7.2536036285        0.0934110021        1.4055222430
 C          5.9887935139        0.9684073548       -0.1062071144
 H          5.9746004862        1.9792139116        0.3188841842
 H          6.0137441005        1.1152787077       -1.1920669902
 H          5.2116478284       -3.3859821237        0.4349022964
 H          6.7683176873       -3.1093411272        1.2239279835
 H          4.6741147728       -2.1965800025        2.3804141819
 H          6.0166195865       -1.0701257851        2.2229778879
 O          3.0449135151       -1.0873693768        1.1753973993
 C          1.9585423534       -0.4419098078        0.6078209627
 O          0.8587382654       -0.9352498681        0.9223808278
 O          3.7818243001        2.1670653155       -1.1011259625
 C          1.0757103137        1.4145988109       -0.8714562689
 C         -0.0504293790        1.6290871866        0.1080142977
 C          0.2027007912        2.3637843722        1.2636865526
 C         -0.7895492705        2.5659113272        2.2022660059
 C         -2.0566282613        2.0464636948        2.0050489898
 C         -2.3252673942        1.3257459281        0.8472267604
 C         -1.3251735798        1.1245317139       -0.0937708133
 H         -1.5502359504        0.5379241254       -0.9675622023
 N         -3.6248956652        0.8452428630        0.6083438648
 S         -3.9084839219       -0.5378542932       -0.3114808923
 O         -3.2608503983       -1.6927623868        0.2682967724
 O         -3.6077594185       -0.2537398815       -1.6921252334
 C         -5.6762572452       -0.6623617186       -0.1017731851
 C         -6.1905727060       -1.5368760704        0.8365366116
 C         -7.5643319789       -1.6053595862        1.0085236225
 C         -8.3961929925       -0.8005731110        0.2448458823
 C         -7.8656646354        0.0717546483       -0.6940780767
 C         -6.4932373287        0.1440530394       -0.8714349197
 H         -6.0361217191        0.7993596217       -1.5942149799
 H         -8.5158406639        0.6937863453       -1.2878265697
 H         -9.4647910948       -0.8559517238        0.3802483191
 H         -7.9791866609       -2.2851657684        1.7352326012
 H         -5.5053778747       -2.1496188611        1.4003985253
 H         -4.1913870990        0.8329596098        1.4457823818
 H         -2.8306850845        2.1967816808        2.7422775614
 H         -0.5751999517        3.1272092690        3.0995032192
 H          1.1969857661        2.7597296189        1.4225835263
 H          1.5079345971        2.4008091112       -1.1129475378
 C          0.6119104887        0.8106401130       -2.1883966594
 C          1.5388797380        0.0094781367       -3.0510656177
 C          0.3929700609       -0.6618068766       -2.3581189824
 H         -0.4536495019       -0.9880805084       -2.9455695584
 H          0.5979814242       -1.2983121449       -1.5108671387
 H          1.4877778191        0.1432980419       -4.1210646483
 H          2.5364769379       -0.1739792900       -2.6792129551
 H         -0.0830972566        1.4624809983       -2.7099637622
