  62
        -98.94160151
 C         -1.2423328694       -1.5908639804       -0.2253070097
 C         -1.3777473199       -0.1880167805       -0.3738826895
 C         -2.5411210199        0.4152182090        0.2992368208
 C         -3.3712767895       -0.3593898113        1.0189146609
 C         -4.6178643295        0.1202969282        1.7032833113
 C         -5.8387117997        0.0002456478        0.7801819916
 C         -5.6204079702        0.5881246881       -0.6141393984
 H         -4.8659387702       -0.0047570216       -1.1363902087
 H         -6.5564948103        0.4727048878       -1.1650839082
 C         -5.1999423208        2.0644440682       -0.6230484183
 H         -5.7816351711        2.5885262781       -1.3844176981
 H         -5.4375082207        2.5220517080        0.3378544418
 C         -3.7236034509        2.3018567188       -0.9468311287
 H         -3.4602059010        1.7699518390       -1.8643684488
 H         -3.5864368713        3.3694465388       -1.1365049186
 C         -2.7273342805        1.8985586290        0.1472557010
 H         -3.0221477804        2.3482384888        1.0971626011
 H         -1.7467965007        2.2926664494       -0.1329020192
 H         -6.0866048993       -1.0581243823        0.6700079215
 H         -6.6839695497        0.4983041075        1.2587363718
 H         -4.7821055991       -0.4949238920        2.5895069213
 H         -4.4827801898        1.1552423682        2.0109262214
 O         -3.1918322190       -1.6976086813        1.1642618407
 C         -2.1369477289       -2.3418379808        0.5427145404
 O         -2.1039883784       -3.5734953009        0.7411191503
 O         -0.5886954403        0.5375856299       -1.0295130497
 C         -0.1174613592       -2.3857079600       -0.8708580201
 C          1.1099021610       -2.3579997996        0.0019651396
 C          1.6437897115       -3.5392320695        0.5048684693
 C          2.7507150117       -3.5157889792        1.3340652691
 C          3.3595290314       -2.3162480690        1.6554214790
 C          2.8349764308       -1.1298634192        1.1561951993
 C          1.7077217306       -1.1533367095        0.3486440696
 H          1.2952933502       -0.2265458896       -0.0186280302
 N          3.4274720105        0.1080140710        1.4554397693
 S          3.7090728198        1.1649699113        0.1800467093
 O          3.8890591997        0.4453740315       -1.0589770608
 O          4.8416621196        1.9586248316        0.6161161391
 C          2.2884377294        2.2291852708        0.1089153798
 C          1.8168969295        2.7692155105        1.2888133700
 C          0.7655137191        3.6687190101        1.2370707204
 C          0.2141917687        4.0167432000        0.0127672805
 C          0.6981229686        3.4622435603       -1.1612475997
 C          1.7457863489        2.5572446107       -1.1156488600
 H          2.1407975289        2.0904788510       -2.0034525102
 H          0.2576723883        3.7209268103       -2.1106203895
 H         -0.6012729415        4.7225160198       -0.0253330692
 H          0.3779642092        4.0951307399        2.1485329305
 H          2.2744873798        2.4771615805        2.2197059098
 H          4.2380008606        0.0485055512        2.0557697291
 H          4.2326978815       -2.2949609888        2.2903481688
 H          3.1501548121       -4.4397288291        1.7242364189
 H          1.1725621118       -4.4786434896        0.2544680993
 H         -0.4816396889       -3.4253685301       -0.8912391401
 C          0.1427133703       -1.9808879197       -2.3155121601
 C          1.3789071299       -1.2945519392       -2.8055130404
 C          1.1498107503       -2.7384817193       -3.1303287505
 H          0.9009403502       -3.0135723892       -4.1443074704
 H          1.7566038307       -3.4661864391       -2.6118212107
 H          1.2555292394       -0.5653939492       -3.5928202902
 H          2.1617143900       -1.0378690590       -2.1088178805
 H         -0.7782813100       -1.7094401000       -2.8230102099
