  62
        -98.94364445
 C          1.1184070632        1.4931428449        0.1653799635
 C          1.6005465298        0.4910963370        1.0464018834
 C          2.4723044299       -0.5322627732        0.4605572103
 C          2.7340712050       -0.5030885732       -0.8585490779
 C          3.5556028074       -1.5078101395       -1.6201706835
 C          5.0674154052       -1.2471799199       -1.5751960398
 C          5.7375914609       -1.5462710246       -0.2335704134
 H          5.4751204030       -2.5559280540        0.0837179701
 H          6.8159023226       -1.5274503464       -0.4033908401
 C          5.3945412626       -0.5474612658        0.8803706638
 H          4.9737316316        0.3586865807        0.4384045870
 H          6.3090705972       -0.2547258147        1.4009043693
 C          4.4241694030       -1.0811783457        1.9338655484
 H          4.2264778255       -0.2815406574        2.6520813985
 H          4.8883097467       -1.9107133804        2.4715745758
 C          3.0773434152       -1.5565871219        1.3725910421
 H          3.1985126210       -2.5056529176        0.8505232531
 H          2.3924517910       -1.7031754098        2.2106739877
 H          5.5290283168       -1.8784141802       -2.3380800760
 H          5.2499765465       -0.2059854645       -1.8513744655
 H          3.3450190191       -2.5100898548       -1.2449762674
 H          3.2234554950       -1.4522213917       -2.6595246532
 O          2.2471020813        0.4649008030       -1.6756535129
 C          1.4322428318        1.4871689181       -1.1958742081
 O          1.0895566163        2.2984832229       -2.0743837346
 O          1.3068983735        0.4522203028        2.2715084728
 C          0.1788352326        2.5196751287        0.7733329021
 C         -1.2320478047        1.9835320956        0.7944584498
 C         -2.0570991453        2.1772341591        1.8966836691
 C         -3.3444832647        1.6706490525        1.9109503597
 C         -3.8204872976        0.9307343445        0.8433005728
 C         -2.9985813214        0.7183893454       -0.2568141865
 C         -1.7242119163        1.2648044167       -0.2856416629
 H         -1.1066143629        1.1022340850       -1.1560637393
 N         -3.4191393034       -0.0775957581       -1.3425812656
 S         -2.4651305049       -1.4165997264       -1.6821157615
 O         -1.2136089394       -1.0099286206       -2.2657168723
 O         -3.3054196377       -2.2693317841       -2.4951531719
 C         -2.2040002263       -2.1539560418       -0.0804049593
 C         -3.1670981401       -3.0036337070        0.4288763536
 C         -3.0198801480       -3.4851234702        1.7194837583
 C         -1.9305017874       -3.0927789434        2.4834943704
 C         -0.9735160922       -2.2385669682        1.9582431463
 C         -1.1067134019       -1.7683901704        0.6617607949
 H         -0.3745897268       -1.1068471138        0.2250416189
 H         -0.1309614024       -1.9101878011        2.5465235540
 H         -1.8242498045       -3.4535254987        3.4943210702
 H         -3.7582840567       -4.1550202014        2.1296116305
 H         -3.9997972010       -3.2788987076       -0.1981430619
 H         -4.3874645134       -0.3628360686       -1.2837803040
 H         -4.8156873525        0.5133723431        0.8614207218
 H         -3.9767312681        1.8347572028        2.7697669525
 H         -1.6771761766        2.7151763628        2.7524455659
 H          0.5018999378        2.6200706784        1.8224526304
 C          0.2707958024        3.8971956274        0.1349860314
 C         -0.7633834907        4.4306756149       -0.8054692476
 C         -0.6438788695        5.0026335851        0.5734057827
 H         -0.2328450767        5.9942184320        0.6869946431
 H         -1.4216703854        4.7605763863        1.2810727698
 H         -0.4212523852        5.0106234468       -1.6487512064
 H         -1.6126249956        3.8042518490       -1.0317220337
 H          1.2981599702        4.1727226479       -0.0799144211
