  62
        -98.94633700
 C         -1.7821020425       -0.7582415826        0.2073570984
 C         -3.0749196412       -0.9945761518        0.7328109476
 C         -3.9872638011        0.1566273900        0.7340861866
 C         -3.5505680235        1.3424597287        0.2712757534
 C         -4.3892532913        2.5825087771        0.1665498517
 C         -5.0707870928        2.6770972668       -1.2057242249
 C         -5.7894610739        1.3955674176       -1.6277980885
 H         -6.2584963363        1.5889582583       -2.5950309797
 H         -5.0501387236        0.6061767884       -1.7823038493
 C         -6.8516066464        0.9065347333       -0.6331811219
 H         -7.1311210732        1.7181892811        0.0395030217
 H         -7.7478663664        0.6235230837       -1.1892115519
 C         -6.4352797212       -0.3135647403        0.1905087493
 H         -7.3242892637       -0.7041159518        0.6929114919
 H         -6.0663730849       -1.0970042984       -0.4764415577
 C         -5.3747526577       -0.0599789650        1.2693322153
 H         -5.6819408479        0.7789195130        1.8970956457
 H         -5.3177827368       -0.9552683998        1.8954850808
 H         -4.3099005369        2.9051739624       -1.9557442882
 H         -5.7826573099        3.5041591357       -1.1814927355
 H         -5.1382896604        2.5764152023        0.9559187568
 H         -3.7400819414        3.4493718640        0.3000838581
 O         -2.2935374763        1.5367358831       -0.2026079110
 C         -1.3816492615        0.4931035715       -0.2586638680
 O         -0.2720886031        0.8067515947       -0.7281285597
 H          1.8694384284       -1.9045823345       -0.6490865896
 C          1.7233395631       -1.6117116264        0.3765907465
 C          0.4533110060       -1.5551410507        0.9274655567
 C          0.3207628964       -1.1676136440        2.2595494500
 C          1.4282072732       -0.8351101445        3.0140372771
 C          2.6938881786       -0.8736386621        2.4538355633
 C          2.8383901706       -1.2634339919        1.1289363724
 N          4.1141205461       -1.3394308583        0.5375453540
 S          4.4389692251       -0.4646397953       -0.8531309926
 O          3.5574282918       -0.8785082008       -1.9125297613
 O          5.8536511025       -0.6630320993       -1.0847504730
 C          4.1492911466        1.2352423182       -0.3956208883
 C          5.2358657912        2.0137396097       -0.0436143135
 C          5.0233639806        3.3179241995        0.3710039926
 C          3.7309809209        3.8173729991        0.4364096290
 C          2.6527433095        3.0209437716        0.0845119291
 C          2.8564637523        1.7151539434       -0.3363761274
 H          2.0233089705        1.0891474681       -0.6148930332
 H          1.6429810148        3.3972393985        0.1318674722
 H          3.5621729705        4.8319890732        0.7616670069
 H          5.8617283309        3.9388514303        0.6430180734
 H          6.2222975226        1.5843387702       -0.1140796160
 H          4.8721219607       -1.2077961757        1.1931435723
 H          3.5617237686       -0.6090931549        3.0388946068
 H          1.3073037641       -0.5378700414        4.0447452005
 H         -0.6692543809       -1.1309870376        2.6937819181
 C         -0.7905711608       -1.9062128606        0.1503006110
 H         -1.2866845843       -2.7459911750        0.6595511354
 C         -0.5219109340       -2.3024806040       -1.2859672478
 C         -0.1044839668       -3.7038643859       -1.6133711533
 C         -1.4779614143       -3.2266947097       -1.9759798563
 H         -1.7067431953       -3.0503617145       -3.0164364231
 H         -2.3155368357       -3.5932353266       -1.4002762771
 H          0.6152050293       -3.8530935631       -2.4043796110
 H         -0.0096275570       -4.4010788590       -0.7946203002
 H         -0.0967473850       -1.4961083201       -1.8742830452
 O         -3.4447767024       -2.1119774669        1.1837193926
