  62
        -98.93705096
 C         -1.6659928444       -1.0959131419        0.2637411621
 C         -2.8582458760       -0.9546708190        1.0202572310
 C         -3.6315850989        0.2840534155        0.8278338883
 C         -3.1501227124        1.2288840873        0.0025220511
 C         -3.7868666758        2.5406717406       -0.3643359807
 C         -4.6189429253        2.4002053758       -1.6503869434
 C         -6.0639566116        1.9513441535       -1.4368869565
 H         -6.6285004002        2.7653273983       -0.9772333318
 H         -6.4970177600        1.7692527533       -2.4232294509
 C         -6.2387200798        0.6923687428       -0.5834832219
 H         -5.4956021566       -0.0534519476       -0.8718940294
 H         -7.2209291682        0.2707446908       -0.8058850659
 C         -6.1459031977        0.9674537786        0.9249009165
 H         -7.0161584041        0.5370315763        1.4247851989
 H         -6.1937897575        2.0428991126        1.0946968815
 C         -4.9055873422        0.3887308675        1.6209983467
 H         -4.7042554438        0.9666235861        2.5293211168
 H         -5.1155378966       -0.6350894910        1.9464401565
 H         -4.6372924514        3.3639625385       -2.1633183499
 H         -4.1067496042        1.6914851748       -2.3064543276
 H         -4.3901261600        2.9199773645        0.4549870256
 H         -2.9713697420        3.2414241034       -0.5543639469
 O         -1.9829866347        1.0735440070       -0.6763105547
 C         -1.2202353471       -0.0825047366       -0.5868025198
 O         -0.2051794462       -0.0576077831       -1.3061269065
 O         -3.2661871628       -1.8347587005        1.8244967822
 C         -0.8541297836       -2.3619675006        0.4866708574
 C          0.5614968841       -1.9831383963        0.8343490976
 C          0.8816083996       -1.6246360336        2.1402661455
 C          2.1573066217       -1.1999517073        2.4632027575
 C          3.1294835562       -1.0911770228        1.4840181402
 C          2.8100815316       -1.4247003281        0.1743185944
 C          1.5437361914       -1.8995479535       -0.1391759874
 H          1.3077947528       -2.1567108071       -1.1596871020
 N          3.7668908694       -1.2551114850       -0.8401758809
 S          4.7282635547        0.1113105024       -0.7868804563
 O          5.0514429585        0.4039413897       -2.1667825900
 O          5.8624273645       -0.1405679291        0.0706017431
 C          3.7526208597        1.4356399561       -0.0856270494
 C          2.4501012820        1.6280967931       -0.4998773261
 C          1.7245560268        2.6748863316        0.0470668284
 C          2.3081990928        3.5143024418        0.9824107239
 C          3.6203584376        3.3120047798        1.3817480418
 C          4.3491306144        2.2628618765        0.8460152444
 H          5.3673973861        2.0618155270        1.1375953655
 H          4.0745536548        3.9643428492        2.1101326756
 H          1.7360662083        4.3263330460        1.4030874090
 H          0.7000399093        2.8131099434       -0.2618247356
 H          1.9854506949        0.9653713319       -1.2126083161
 H          3.3960895690       -1.3968151260       -1.7686872150
 H          4.1255538676       -0.7479600336        1.7137146062
 H          2.3956907208       -0.9374707920        3.4825216969
 H          0.1142164776       -1.6757284487        2.8999853395
 H         -1.3140046022       -2.8253796074        1.3737033975
 C         -0.9350977429       -3.3923184667       -0.6296072936
 C         -2.2490489713       -3.6912781850       -1.2861164879
 C         -1.1500936670       -3.0424001161       -2.0701990533
 H         -0.6382959746       -3.6326872111       -2.8168086941
 H         -1.2489488802       -2.0015752247       -2.3341719215
 H         -2.5010780313       -4.7189708895       -1.4996680920
 H         -3.0945309426       -3.0842591476       -0.9963980853
 H         -0.2892676942       -4.2429714349       -0.4323602259
