  62
        -98.93753953
 C         -2.2746566642       -0.7390868045        0.0773555993
 C         -3.1945651342       -0.2442570662        1.0370092813
 C         -4.1588837870        0.7801965926        0.5951072385
 C         -4.1118177658        1.1981650081       -0.6831279768
 C         -5.0045785813        2.1937483037       -1.3745938743
 C         -6.3872611791        1.6136918838       -1.7138131810
 C         -7.0315177400        0.7937819481       -0.5990590423
 H         -7.9476899403        0.3517725087       -0.9996631447
 H         -6.3668049472       -0.0289358005       -0.3293935332
 C         -7.4024858541        1.5799362065        0.6561615113
 H         -7.9310543047        0.8941723699        1.3232269527
 H         -8.0957363433        2.3796066516        0.3858740576
 C         -6.2346038336        2.1910843206        1.4334262628
 H         -6.6197567810        2.4978387787        2.4102879604
 H         -5.8697563228        3.0929482805        0.9493009397
 C         -5.0780728816        1.2336922871        1.7034557041
 H         -4.4245566782        1.6808051875        2.4622173582
 H         -5.4688951110        0.3195260053        2.1646000473
 H         -7.0476415277        2.4366904975       -1.9922079124
 H         -6.2754229993        0.9617740887       -2.5836843908
 H         -5.0984433847        3.0921422530       -0.7718066951
 H         -4.5051007363        2.4686825384       -2.3062656954
 O         -3.2079764052        0.6994968844       -1.5720626624
 C         -2.2774695020       -0.2652836116       -1.2335717316
 O         -1.5370186846       -0.5923137648       -2.1848377986
 O         -3.2215938034       -0.6532657724        2.2288647945
 C         -1.3067838989       -1.8093748329        0.5523257621
 C          0.0657852241       -1.2465874753        0.8370334724
 C          0.5976950103       -1.2864417257        2.1205872815
 C          1.8666522293       -0.7953496865        2.3732758356
 C          2.6284052523       -0.2520778133        1.3544740862
 C          2.1049371790       -0.2044485616        0.0689496764
 C          0.8350844895       -0.7040027507       -0.1825367226
 H          0.4310202121       -0.6592018005       -1.1832601272
 N          2.8612046809        0.3670534321       -0.9704678535
 S          4.4199853718       -0.2078844133       -1.2147406180
 O          4.7210201237        0.0780431389       -2.6004349605
 O          4.5470310103       -1.5863061910       -0.8006243715
 C          5.4267459365        0.8334001643       -0.1784813443
 C          6.2542654018        0.2670073611        0.7712914365
 C          7.0370039839        1.0971579384        1.5587348432
 C          6.9793068951        2.4711376266        1.3825612805
 C          6.1445451376        3.0240959367        0.4226233897
 C          5.3605076306        2.1998377686       -0.3686042735
 H          4.7016946927        2.5881493952       -1.1275074456
 H          6.1021975579        4.0930672347        0.2886836060
 H          7.5885535007        3.1153050837        1.9967273681
 H          7.6867737632        0.6694262216        2.3052419906
 H          6.2617034549       -0.8062560945        0.8756783322
 H          2.3593832301        0.4122058118       -1.8461717193
 H          3.6166796588        0.1335146230        1.5448481295
 H          2.2666259225       -0.8338101713        3.3749537622
 H          0.0042933141       -1.6981198873        2.9239465717
 H         -1.7232257753       -2.1651365313        1.5043586525
 C         -1.2096703530       -2.9884586553       -0.3971717297
 C         -0.7123941881       -4.3017150689        0.1246916612
 C         -2.1565576160       -4.1385560247       -0.2414910881
 H         -2.5241863669       -4.6266112029       -1.1316468734
 H         -2.8816728583       -4.0836921910        0.5574007298
 H         -0.0825070975       -4.9031665149       -0.5127779864
 H         -0.4582982417       -4.3587832912        1.1722651920
 H         -0.9297683719       -2.7091683334       -1.4048483451
