  62
        -98.93449474
 C         -2.3517959209       -0.7347472404       -0.0992676311
 C         -3.5084338592       -1.1030192289        0.6245877599
 C         -4.7951326265       -0.6192305729        0.0949721331
 C         -4.7999844471        0.1224721330       -1.0265439306
 C         -5.9863734747        0.7578882464       -1.6975752615
 C         -6.1770856815        2.2038472182       -1.2084855514
 C         -7.0282842330        2.3509265864        0.0521684674
 H         -6.9758563611        3.3980846302        0.3588952285
 H         -8.0701930478        2.1325503001       -0.1910486314
 C         -6.6075572005        1.4716369414        1.2326099623
 H         -5.5203538405        1.4815324940        1.3295801786
 H         -7.0169249076        1.9143752137        2.1427584396
 C         -7.1081168235        0.0243025673        1.1160052694
 H         -7.6159001879       -0.2582320673        2.0405370405
 H         -7.8545298891       -0.0318078020        0.3239707529
 C         -6.0166769828       -1.0283954522        0.8724366378
 H         -6.4641090621       -1.9001502669        0.3834363818
 H         -5.6268199953       -1.3775089803        1.8338692651
 H         -5.1861445528        2.6320160643       -1.0366705233
 H         -6.6492921707        2.7833644128       -2.0042918023
 H         -5.7638770921        0.7787262342       -2.7663550915
 H         -6.8828296660        0.1664567233       -1.5373292010
 O         -3.6602151228        0.4499201791       -1.6968802135
 C         -2.4138955706        0.0385031335       -1.2578703916
 O         -1.4648807357        0.4172430607       -1.9701741104
 O         -3.4680926591       -1.7974478407        1.6768932693
 C         -0.9955920910       -1.2024636287        0.3926597358
 C         -0.0814355376       -0.0282267714        0.6411915665
 C         -0.5580452054        1.0598798122        1.3688945631
 C          0.2533840116        2.1463572717        1.6297032678
 C          1.5653074877        2.1647894788        1.1891660258
 C          2.0528897102        1.0829366715        0.4670968298
 C          1.2299307170       -0.0020275870        0.1955031890
 H          1.6367719409       -0.8247589394       -0.3678548416
 N          3.3738102951        1.0742716077       -0.0088588012
 S          4.2036701541       -0.3958590737       -0.0426054481
 O          3.8826167662       -1.0912180860       -1.2633869976
 O          3.9745366329       -1.1214892132        1.1863233711
 C          5.8880434990        0.1875975088       -0.1097273167
 C          6.4060826589        0.5829668887       -1.3287368195
 C          7.7046193572        1.0642124617       -1.3800305246
 C          8.4592570305        1.1420817780       -0.2187416306
 C          7.9265890171        0.7398510837        0.9968038629
 C          6.6279838926        0.2588351168        1.0555341773
 H          6.1751724228       -0.0734349365        1.9758468586
 H          8.5168944003        0.7982973436        1.8970277416
 H          9.4699727391        1.5160389125       -0.2621104967
 H          8.1231751882        1.3752217777       -2.3236016752
 H          5.7852431693        0.4956999244       -2.2052664324
 H          3.9393166557        1.8152632603        0.3821517990
 H          2.2016268152        3.0116403221        1.3967940603
 H         -0.1346957741        2.9840745487        2.1897093443
 H         -1.5794189504        1.0412521748        1.7249527415
 H         -1.1860053511       -1.6940675729        1.3592490494
 C         -0.4155013644       -2.2246013358       -0.5621691404
 C          0.5404078734       -3.2665352641       -0.0657509278
 C         -0.8525681606       -3.6538544102       -0.4593468895
 H         -0.9947206660       -4.2165510359       -1.3697027052
 H         -1.5548762801       -3.9012434385        0.3232718767
 H          1.3619899682       -3.5556343674       -0.7046652782
 H          0.7916974055       -3.2544015502        0.9844652552
 H         -0.2546358702       -1.8200659202       -1.5561066414
