  62
        -98.93213716
 C          2.5403905584        1.0239906862        0.2748023775
 C          2.6859464775       -0.0959881635        1.1270996481
 C          3.3925917864       -1.2521397107        0.5613855490
 C          3.8492547703       -1.1972619379       -0.7029090466
 C          4.6354586900       -2.2615165368       -1.4220498693
 C          3.8975728451       -3.5865499296       -1.6952024845
 C          4.1215927025       -4.6666699155       -0.6295380282
 H          4.2304745654       -5.6325806377       -1.1269151256
 H          5.0663285333       -4.4681892627       -0.1219377925
 C          3.0060674533       -4.8226798822        0.4083864954
 H          2.1766857165       -5.3741367549       -0.0401662266
 H          3.3964103732       -5.4269039371        1.2301115468
 C          2.4363944707       -3.5229419647        0.9771635877
 H          1.8058577388       -3.7728702223        1.8327988492
 H          1.7825187469       -3.0544753593        0.2373640019
 C          3.4958737142       -2.4889872519        1.4060070847
 H          3.3175345925       -2.1785968149        2.4375085553
 H          4.4964591764       -2.9137612580        1.3429068745
 H          2.8333870895       -3.3900578399       -1.8232347287
 H          4.2722302539       -3.9654198490       -2.6473665069
 H          4.9261208571       -1.8130078083       -2.3741598902
 H          5.5477644233       -2.4649542617       -0.8567339269
 O          3.6741362721       -0.1050382907       -1.4956093892
 C          3.0020672349        1.0201856834       -1.0417783754
 O          2.8932989254        1.9258453011       -1.8889049272
 O          2.2458310334       -0.1283592982        2.3088515151
 C          1.8064900917        2.2469468926        0.7970525953
 C          0.5067785606        2.4037908594        0.0451727970
 C          0.1687757757        3.5330010179       -0.6868130760
 C         -1.0378811944        3.5903021748       -1.3641246026
 C         -1.9280703143        2.5338073179       -1.3251355537
 C         -1.6051388936        1.4024701803       -0.5853339210
 C         -0.3989477118        1.3499532073        0.0963831480
 H         -0.1441745234        0.4709611765        0.6758884174
 N         -2.4938629196        0.3099815013       -0.5478049207
 S         -4.1332701063        0.6594884803       -0.3278240605
 O         -4.6884264792        1.0603680134       -1.5960550505
 O         -4.2991503118        1.5993733560        0.7585302445
 C         -4.7691755024       -0.9406023307        0.1289918688
 C         -5.0753069940       -1.8447258936       -0.8703720166
 C         -5.5503259915       -3.0975509506       -0.5166857292
 C         -5.7101768499       -3.4235040219        0.8220371706
 C         -5.3996930061       -2.5049964479        1.8135897693
 C         -4.9227138899       -1.2505919944        1.4669350694
 H         -4.6776269539       -0.5024880887        2.2039566464
 H         -5.5275376684       -2.7601396124        2.8532799867
 H         -6.0821119373       -4.3985134983        1.0946984955
 H         -5.7955702253       -3.8136040097       -1.2843664813
 H         -4.9446246118       -1.5436251642       -1.8966374020
 H         -2.1898733918       -0.3970379043        0.1082070047
 H         -2.8697006506        2.5713094090       -1.8486182844
 H         -1.2879615095        4.4722713253       -1.9345975888
 H          0.8504713034        4.3657652781       -0.7354017844
 H          1.5629641242        2.0132539690        1.8440241817
 C          2.6908458499        3.4739099636        0.7669405288
 C          2.3956642606        4.6275919310        1.6768274835
 C          3.5846679346        3.7535475841        1.9364859045
 H          4.5701784097        4.1518794989        1.7477045057
 H          3.5439439777        3.0670691980        2.7696046758
 H          2.5655503982        5.6291546218        1.3119384733
 H          1.5453819037        4.5377561638        2.3359767214
 H          3.0815542357        3.6869332491       -0.2211458565
