  62
        -98.94947232
 C         -2.0469008171       -0.4112651618       -0.3132199979
 C         -1.3765500322       -1.3274776413       -1.1564646680
 C         -0.9825853486       -2.5987531315       -0.5388341077
 C         -1.2226333714       -2.8053466344        0.7689714137
 C         -0.8824143132       -4.0482250670        1.5461708458
 C          0.5719297414       -4.0919136692        2.0348630528
 C          1.6090251207       -4.4034697981        0.9552878905
 H          2.5433430828       -4.6400051773        1.4684029183
 H          1.3033591676       -5.2938079427        0.4038356274
 C          1.8654615073       -3.2485040221       -0.0225494319
 H          1.5070713574       -2.3158790784        0.4213149732
 H          2.9421397375       -3.1309247110       -0.1713859417
 C          1.2361915779       -3.4375655092       -1.4028647892
 H          1.4698973412       -2.5600114635       -2.0092198394
 H          1.6833944068       -4.3078061347       -1.8890508746
 C         -0.2872394706       -3.6186067601       -1.3920180621
 H         -0.5406870715       -4.6226892082       -1.0514386005
 H         -0.6522844443       -3.4945349155       -2.4149484620
 H          0.8126686715       -3.1323060851        2.5001601633
 H          0.6354979710       -4.8635639253        2.8059951816
 H         -1.0926372413       -4.9318784872        0.9423065557
 H         -1.5400450567       -4.0573301616        2.4181600302
 O         -1.8446927750       -1.8879313525        1.5544699037
 C         -2.2608192738       -0.6697266591        1.0411390594
 O         -2.8139699293        0.0750953176        1.8738362885
 O         -1.1206952348       -1.0961775226       -2.3699507133
 C         -2.4832508702        0.9343003658       -0.8688826872
 C         -1.8310865575        2.0317945784       -0.0640183122
 C         -2.5046974594        3.1330914463        0.4451670801
 C         -1.8374017764        4.0459618393        1.2448971870
 C         -0.5043657099        3.8720547725        1.5668056197
 C          0.1846434484        2.7820584616        1.0431348075
 C         -0.4744885617        1.9019686903        0.2040781654
 H          0.0565452820        1.0554415513       -0.1984458486
 N          1.5368266947        2.5748311632        1.3390222013
 S          2.2846648417        1.0828688882        1.2376592346
 O          1.3832213983       -0.0164825622        1.4874317210
 O          3.4129558522        1.1984183182        2.1381464828
 C          2.8962395261        1.0617096585       -0.4351655585
 C          2.3093839626        0.2682803989       -1.3985765960
 C          2.8024389425        0.3060685854       -2.6937193086
 C          3.8711929801        1.1322298035       -3.0025998135
 C          4.4551777321        1.9213915238       -2.0226101287
 C          3.9641906191        1.8886256411       -0.7281741211
 H          4.3938391012        2.4766272471        0.0656417543
 H          5.2883443126        2.5611852390       -2.2647492770
 H          4.2502432709        1.1583856685       -4.0120313855
 H          2.3391297525       -0.3069109948       -3.4509396086
 H          1.4773769287       -0.3664253538       -1.1351405286
 H          1.9180003760        3.1531484143        2.0717125606
 H         -0.0003489928        4.5651143537        2.2228594760
 H         -2.3719556989        4.8945471584        1.6446302422
 H         -3.5534020617        3.2674897124        0.2364943630
 H         -2.0953655302        0.9711719409       -1.8977940880
 C         -3.9936566526        1.0291536353       -0.9099259368
 C         -4.6702492138        1.8933081554       -1.9308128361
 C         -4.7298694145        0.4012554815       -2.0539816984
 H         -5.6652934360       -0.0986818355       -1.8522131577
 H         -4.1374193714       -0.0752070962       -2.8212520244
 H         -5.5695683402        2.4185995694       -1.6466724157
 H         -4.0424357557        2.4335793413       -2.6228695195
 H         -4.4394497202        0.9515623175        0.0757013482
