  62
        -98.94473721
 C          1.2449101892        1.5085833522        0.3656021095
 C          1.7753737002        0.5567128227        1.2726387094
 C          2.8984334205       -0.2500636266        0.7853795691
 C          3.3369940600       -0.0861291465       -0.4753005110
 C          4.4756896803       -0.8275166758       -1.1206675213
 C          4.0783039810       -2.1990255961       -1.6832468511
 C          3.8414323321       -3.2887228762       -0.6368092709
 H          3.8053214126       -4.2403011662       -1.1710870708
 H          4.6918005923       -3.3290757255        0.0453041788
 C          2.5419480322       -3.1304736869        0.1651358295
 H          1.8563668616       -2.4665642075       -0.3686683703
 H          2.0385374429       -4.0985088573        0.2328107198
 C          2.7354919124       -2.6230059367        1.5946162194
 H          3.2840694731       -3.3695233962        2.1741129793
 H          1.7487508324       -2.5049173173        2.0499717097
 C          3.4759141215       -1.2839660362        1.7046604790
 H          3.3656308116       -0.9168375161        2.7282953090
 H          4.5362865615       -1.4251431755        1.4958235487
 H          3.1771295508       -2.0811855368       -2.2904307108
 H          4.8849329010       -2.5275796356       -2.3431536413
 H          4.8248054496       -0.2040126556       -1.9466985315
 H          5.2907094306       -0.9471416952       -0.4059532616
 O          2.7827901991        0.8135703331       -1.3285542009
 C          1.7067221587        1.6068979624       -0.9481285807
 O          1.2776858480        2.3388001320       -1.8596842706
 O          1.3248968106        0.3853249825        2.4371013396
 C          0.0435004388        2.3159214115        0.8213518398
 C         -1.0909631214        2.1689890006       -0.1638613098
 C         -1.9196077122        3.2082094200       -0.5657986597
 C         -2.9614483623        2.9680820292       -1.4462547593
 C         -3.2122422416        1.6969042990       -1.9292877191
 C         -2.3844192808        0.6504561896       -1.5366737693
 C         -1.3411055307        0.8973874404       -0.6619498496
 H         -0.6816813601        0.0883909009       -0.3913972798
 N         -2.5834221401       -0.6531763506       -2.0079317791
 S         -2.0568487389       -1.9704234101       -1.1327454291
 O         -0.6217811789       -2.0870657292       -1.2063328296
 O         -2.8072659284       -3.0800870507       -1.6821282088
 C         -2.5847951586       -1.6611756003        0.5436439210
 C         -1.6578163784       -1.5064086996        1.5532439007
 C         -2.0996216982       -1.2150264298        2.8339379208
 C         -3.4572141682       -1.0901044606        3.0834020113
 C         -4.3791886884       -1.2637848014        2.0618799516
 C         -3.9414472986       -1.5487908812        0.7791526615
 H         -4.6290740288       -1.6950970017       -0.0377768183
 H         -5.4347368584       -1.1713973120        2.2605701919
 H         -3.7966438080       -0.8569749308        4.0802713613
 H         -1.3734016280       -1.0724833592        3.6185733706
 H         -0.6060106384       -1.5995844389        1.3298040604
 H         -3.4415836902       -0.8196281112       -2.5099537988
 H         -4.0253528917        1.5153552584       -2.6149443588
 H         -3.5922414730        3.7862335388       -1.7591315992
 H         -1.7418381228        4.2090356902       -0.2084939898
 H         -0.2727693905        1.8131766813        1.7525736899
 C          0.3434191780        3.7596835117        1.1980490195
 C          1.7433971578        4.2223962527        1.4670821190
 C          1.0134257271        4.7107139821        0.2537009692
 H          0.6791675664        5.7378751418        0.2369743392
 H          1.3064939970        4.3268505821       -0.7104719508
 H          1.9084757876        4.9090488428        2.2840009189
 H          2.5433988182        3.5095905432        1.3262026389
 H         -0.4236962021        4.1790609713        1.8416042298
