  62
        -98.94120378
 C         -1.9713189395       -0.9074155161       -0.2277782577
 C         -2.4734125223       -0.2292058295        0.9131660677
 C         -2.6790583554        1.2149691359        0.7814816349
 C         -2.3465529356        1.8283425731       -0.3682443250
 C         -2.4427539460        3.3043725560       -0.6461219842
 C         -3.8364591578        3.7710157403       -1.0887738078
 C         -4.8944840388        3.7953893154        0.0150919932
 H         -4.5123742880        4.3554117006        0.8689856960
 H         -5.7536291497        4.3428843233       -0.3772646534
 C         -5.3610334742        2.4070064281        0.4743301989
 H         -6.4513110927        2.3914326263        0.5375735790
 H         -5.0718289903        1.6617293101       -0.2701549276
 C         -4.8217055790        1.9761463339        1.8382388208
 H         -5.1860906350        0.9674369804        2.0478181059
 H         -5.2081230694        2.6423710276        2.6125933992
 C         -3.2903440654        1.9541164417        1.9336564058
 H         -2.9001027566        2.9707866927        1.9806399608
 H         -3.0087521003        1.4286072223        2.8494164973
 H         -3.7295956615        4.7838265989       -1.4840453368
 H         -4.1749249129        3.1291851510       -1.9053787884
 H         -2.1328558439        3.8609587271        0.2390868687
 H         -1.7340295196        3.5126211124       -1.4509640975
 O         -1.8525394909        1.1516919420       -1.4366485737
 C         -1.6512974004       -0.2230339399       -1.4010563140
 O         -1.2048992794       -0.6802556446       -2.4724909103
 H          0.6185465533       -1.2073689816       -0.8268415509
 C          0.7581528680       -1.8961124742       -0.0069824952
 C         -0.3181875056       -2.6069583315        0.5021890406
 C         -0.0949419128       -3.4994343956        1.5443677259
 C          1.1724526510       -3.6595079586        2.0751933737
 C          2.2337797024       -2.9123801250        1.5976346087
 C          2.0214166387       -2.0223834334        0.5507363190
 N          3.0678989112       -1.2387451843        0.0397288928
 S          2.7012934613        0.3484023214       -0.4192053860
 O          1.6994209800        0.9016390014        0.4641036223
 O          2.4092172140        0.3673715366       -1.8302403250
 C          4.2756686141        1.1384727839       -0.1316744588
 C          4.4985255656        1.7774791106        1.0734215891
 C          5.7346051082        2.3604368232        1.3051154069
 C          6.7227983465        2.2917838930        0.3345316934
 C          6.4843155801        1.6474985589       -0.8704461434
 C          5.2503198363        1.0632990956       -1.1088801955
 H          5.0139792954        0.5605046086       -2.0322400045
 H          7.2534641477        1.5987508499       -1.6241221018
 H          7.6836990947        2.7460790982        0.5172025063
 H          5.9207565066        2.8649469144        2.2394791129
 H          3.6964792928        1.8126121504        1.7933309596
 H          3.9080108195       -1.2841186228        0.6004706767
 H          3.2174145358       -3.0128154303        2.0304762586
 H          1.3313604651       -4.3549702007        2.8851016019
 H         -0.9271460611       -4.0528859093        1.9527851245
 C         -1.7083343275       -2.3925540613       -0.0530017901
 H         -2.4225361279       -2.7292702398        0.7122684442
 C         -1.9118428205       -3.2308642005       -1.2985329305
 C         -2.2710024391       -4.6787159546       -1.1561339859
 C         -3.2898649138       -3.6989997293       -1.6539555419
 H         -3.5699754219       -3.7213491024       -2.6961138546
 H         -4.0963423663       -3.4203074490       -0.9913065152
 H         -1.8487363174       -5.3820779576       -1.8569464253
 H         -2.3940212887       -5.0706553163       -0.1581857381
 H         -1.2567017948       -2.9504126506       -2.1130956918
 O         -2.7403316874       -0.8146071709        1.9982516302
