  62
        -98.92735055
 C          2.5452538720        0.2765743979       -0.6688631908
 C          2.2629531197        0.8973088616        0.5725475854
 C          1.5880699826        2.1994427631        0.4960604750
 C          1.2978260776        2.7314872547       -0.7039212575
 C          0.5796024509        4.0301068968       -0.9526801813
 C         -0.8993790087        4.0383096839       -0.5156773731
 C         -1.1382244325        4.6462573902        0.8725486022
 H         -0.3123610489        5.3193629829        1.1070244783
 H         -2.0415703350        5.2586448398        0.8361376005
 C         -1.3208347541        3.6451754211        2.0176385149
 H         -1.2112766926        4.1900256713        2.9583248830
 H         -2.3377813873        3.2482428406        1.9812021246
 C         -0.3663093361        2.4501077985        2.0212534457
 H         -0.4653475027        1.9352412490        2.9795747732
 H         -0.6686342003        1.7342626037        1.2529678797
 C          1.1151011788        2.8064531850        1.7849115518
 H          1.2588616611        3.8859205014        1.7798232707
 H          1.7309741130        2.3764199069        2.5774921761
 H         -1.4483617025        4.6304423983       -1.2499369546
 H         -1.2879818822        3.0199815258       -0.5636822933
 H          1.1174874273        4.8391466084       -0.4536091323
 H          0.6388005536        4.2000680066       -2.0296194036
 O          1.6497375791        2.1328119720       -1.8758420163
 C          2.2284224104        0.8755321059       -1.8850543451
 O          2.4227277754        0.4047125482       -3.0281173728
 O          2.5408862501        0.3859528594        1.6868715171
 C          3.0766807968       -1.1526627269       -0.6988015552
 C          2.1601498466       -1.9806665777        0.1766880967
 C          2.5000157021       -2.8950896540        1.1631392981
 C          1.5145369728       -3.5513840383        1.8864755539
 C          0.1746365084       -3.3046456709        1.6687230182
 C         -0.1832485134       -2.3892193948        0.6824440758
 C          0.8013802294       -1.7801943980       -0.0702169019
 H          0.5046707730       -1.1001965233       -0.8565305895
 N         -1.5317059284       -2.0474058358        0.4836523424
 S         -2.0208927958       -0.9916254664       -0.7225320939
 O         -1.8073811998       -1.5687901416       -2.0339612752
 O         -1.4375101505        0.3037976188       -0.4839329966
 C         -3.7661361672       -0.9365366908       -0.3657480128
 C         -4.6383113011       -1.7256622167       -1.0909227514
 C         -5.9891896024       -1.6917018306       -0.7817055069
 C         -6.4419773662       -0.8745119469        0.2429869251
 C         -5.5548532041       -0.0864749193        0.9615015472
 C         -4.2033909158       -0.1162663745        0.6569340612
 H         -3.4764875820        0.4820216562        1.1820262902
 H         -5.9104508992        0.5497505930        1.7557882034
 H         -7.4934399113       -0.8492669010        0.4816006697
 H         -6.6813033623       -2.3008692331       -1.3403944063
 H         -4.2410462253       -2.3367159936       -1.8854795198
 H         -2.1868149196       -2.7972557902        0.6467736801
 H         -0.5854010645       -3.7971782177        2.2544801355
 H          1.8060960936       -4.2587153313        2.6482780879
 H          3.5265732319       -3.1047710233        1.4014743717
 H          2.9162005078       -1.4988503118       -1.7355090253
 C          4.5835333555       -1.1171945790       -0.4960584475
 C          5.2849663438       -1.1918667009        0.8228568148
 C          5.4532787363       -2.2971344434       -0.1784102118
 H          6.3998832317       -2.3673501377       -0.6941812410
 H          4.9898298525       -3.2536571701       -0.0026952811
 H          6.1157368872       -0.5206343558        0.9858717742
 H          4.6818975152       -1.3442286961        1.7025558710
 H          5.0052091646       -0.4130185748       -1.2114978178
