  62
        -98.94371884
 C          1.4778993899        1.1282914401        0.0567344005
 C          2.5053594897        0.7460982398        0.9463100306
 C          3.0902477297       -0.5884847502        0.7370023303
 C          2.6019234698       -1.3687689799       -0.2431833800
 C          3.0830842498       -2.7353076999       -0.6463688902
 C          4.1136389900       -2.6377562596       -1.7843101800
 C          5.5596911799       -2.4440122798       -1.3290745397
 H          5.9210436498       -3.3714791500       -0.8800965999
 H          6.1592116301       -2.2568500497       -2.2228014096
 C          5.7857895298       -1.3004847501       -0.3365925694
 H          6.8407688099       -1.0231592802       -0.3795660491
 H          5.2084000299       -0.4266978100       -0.6438702593
 C          5.4309324695       -1.6776282605        1.1095225605
 H          5.3013716995       -2.7578606605        1.1744390501
 H          6.2675245195       -1.4263213007        1.7648092007
 C          4.1916073195       -0.9761399705        1.6860554504
 H          4.4925172795       -0.0355277707        2.1586019407
 H          3.7633252693       -1.5991909907        2.4790477202
 H          4.0657129400       -3.5522459695       -2.3788980703
 H          3.8171378702       -1.8095093094       -2.4328100699
 H          3.4882171296       -3.2675869801        0.2093010997
 H          2.2062950898       -3.2757590397       -1.0100302805
 O          1.5967532000       -0.9692981196       -1.0679599000
 C          1.0048356100        0.2717202504       -0.9360134598
 O          0.0907161802        0.4990903207       -1.7526987999
 O          2.9213021996        1.4916264795        1.8768744709
 C          0.8275075000        2.4895472201        0.2129794308
 C         -0.6642389600        2.3488632501        0.3911954605
 C         -1.5796022199        3.2376860604       -0.1601358695
 C         -2.9388890599        3.0554451104        0.0274606802
 C         -3.4151184201        1.9747188702        0.7467241799
 C         -2.5072948203        1.0855920700        1.3092117598
 C         -1.1471000102        1.2925810900        1.1530837401
 H         -0.4582297104        0.5901428798        1.5997813200
 N         -2.9357579105       -0.0523182801        2.0282171694
 S         -2.5949911205       -1.5338505900        1.3162022291
 O         -3.2167638307       -2.5169281302        2.1785264287
 O         -1.1757249305       -1.6691010500        1.1152900693
 C         -3.4743574402       -1.4688583995       -0.2347661811
 C         -2.9119584600       -0.8129196092       -1.3112559308
 C         -3.6553287298       -0.6928591089       -2.4764400209
 C         -4.9348301398       -1.2212545388       -2.5446183312
 C         -5.4836771200       -1.8778752990       -1.4529776215
 C         -4.7504021602       -1.9983435694       -0.2842943714
 H         -5.1326975204       -2.5018652896        0.5891071084
 H         -6.4779092300       -2.2911994389       -1.5079875918
 H         -5.5058374096       -1.1213098785       -3.4542386413
 H         -3.2205657796       -0.1815525887       -3.3203043307
 H         -1.9118480299       -0.4123782093       -1.2425557405
 H         -3.9177090105       -0.0283772301        2.2703262192
 H         -4.4756989202        1.8161194603        0.8717997496
 H         -3.6364722598        3.7542487806       -0.4079818497
 H         -1.2270659997        4.0731380105       -0.7426343692
 H          1.2486591499        2.9124034798        1.1379177309
 C          1.2069790603        3.3859419604       -0.9492121789
 C          1.3690686703        4.8629861103       -0.7519870085
 C          2.5739017403        3.9995181703       -0.9696953585
 H          3.0962460005        4.0653905605       -1.9123216584
 H          3.2186262702        3.7949768500       -0.1272992485
 H          1.0667878605        5.5259136805       -1.5486660584
 H          1.2035706802        5.2567506200        0.2394185516
 H          0.8025247904        3.0337710806       -1.8918213791
