  62
        -98.94329754
 C         -2.5109067687       -1.0499761365       -0.1667758544
 C         -3.6592896536       -0.8916884750        0.6459501222
 C         -4.6860803719        0.0201970518        0.1306478671
 C         -4.5033451894        0.6286349362       -1.0555669411
 C         -5.4664966865        1.5729036201       -1.7225130615
 C         -5.3520001769        3.0247956054       -1.2378162389
 C         -5.8946675998        3.2866297731        0.1676998108
 H         -6.9103784073        2.8969766520        0.2424708078
 H         -5.9515297810        4.3698245623        0.2922057900
 C         -5.0335953517        2.7051800870        1.2977391858
 H         -4.9046335742        3.4559307059        2.0806673083
 H         -4.0382313592        2.4703475586        0.9132940183
 C         -5.6161819348        1.4564037965        1.9597915003
 H         -6.5519271673        1.7104735368        2.4626340248
 H         -4.9102387054        1.1093919585        2.7187538393
 C         -5.8809689694        0.2945700376        0.9931668129
 H         -6.7544556626        0.5085694786        0.3777944939
 H         -6.0790039794       -0.6038894958        1.5828646025
 H         -5.9098618825        3.6475990654       -1.9408656650
 H         -4.3032441707        3.3268493777       -1.2857671171
 H         -6.4874661048        1.2187717778       -1.5776479163
 H         -5.2373236665        1.5475681337       -2.7899672757
 O         -3.3936673217        0.4336954806       -1.8163224214
 C         -2.3623778778       -0.3890040469       -1.3859907234
 O         -1.3967351715       -0.4511082728       -2.1701855150
 O         -3.8167319658       -1.4825095617        1.7479497761
 C         -1.3926858186       -1.9558930303        0.3177792396
 C         -0.1373848742       -1.1412474271        0.5088151958
 C         -0.1643484001       -0.0822662526        1.4136902609
 C          0.9521263043        0.7048513554        1.6148015115
 C          2.1217290594        0.4575020785        0.9161440240
 C          2.1633218180       -0.5998128917        0.0191320009
 C          1.0398928126       -1.3960662364       -0.1744171372
 H          1.0886367256       -2.2112003686       -0.8792779838
 N          3.3384020152       -0.8492278962       -0.7050258219
 S          4.8194340194       -0.8208790073        0.0756099626
 O          5.6910347947       -1.6340963725       -0.7438727376
 O          4.6962999188       -1.2095476965        1.4613663017
 C          5.3358184549        0.8791753471       -0.0398969799
 C          5.3679029827        1.4664183459       -1.2894471016
 C          5.7765787536        2.7859163809       -1.3982002983
 C          6.1467179926        3.4912686362       -0.2627226796
 C          6.1128046383        2.8862867308        0.9842246869
 C          5.7043672130        1.5666121419        1.0997995643
 H          5.6572882482        1.0572026692        2.0492382619
 H          6.4012607194        3.4362467067        1.8656294107
 H          6.4633501572        4.5185809796       -0.3506939502
 H          5.8038097664        3.2597805271       -2.3662723684
 H          5.0739786729        0.8850877278       -2.1475070271
 H          3.2717261541       -1.6204815496       -1.3523676428
 H          2.9951036701        1.0710543443        1.0643497369
 H          0.9136936896        1.5223940342        2.3187734308
 H         -1.0792632135        0.1143076544        1.9561214618
 H         -1.7175698662       -2.3156902173        1.3050218016
 C         -1.2267952224       -3.1467363888       -0.6013818592
 C         -0.5833594814       -4.4009032645       -0.0916283358
 C         -2.0570727808       -4.3703696156       -0.3615766299
 H         -2.4370067715       -4.9108354050       -1.2155245564
 H         -2.7326452948       -4.3553495819        0.4810316275
 H          0.0484039234       -4.9672246542       -0.7595243886
 H         -0.2550299644       -4.4106052864        0.9368649756
 H         -1.0484247044       -2.8609646878       -1.6319877185
