  62
        -98.94044913
 C         -2.4805706897       -1.2001405698        0.0041971304
 C         -2.4574604095        0.0089667099       -0.7313771701
 C         -3.7675253494        0.6265948199       -0.9852620007
 C         -4.8820102595        0.0174441802       -0.5406233406
 C         -6.2719829095        0.5671456102       -0.6758271511
 C         -6.6517343596        1.4188425608        0.5438343484
 C         -5.5966603196        2.4570958909        0.9259199082
 H         -5.9853911398        3.0164815212        1.7796014279
 H         -4.6940336298        1.9422063109        1.2630720586
 C         -5.2290409393        3.4333626104       -0.2001730621
 H         -6.0028976492        3.4214450901       -0.9684675523
 H         -5.1946482194        4.4446542705        0.2103478975
 C         -3.8684938092        3.1707097500       -0.8488164917
 H         -3.1007184094        3.0884220803       -0.0749279815
 H         -3.6145959190        4.0340330497       -1.4697742020
 C         -3.7842456491        1.9255274296       -1.7407331012
 H         -4.5964062590        1.9385548994       -2.4704734514
 H         -2.8342015690        1.9683228293       -2.2818450710
 H         -7.5982057896        1.9199746508        0.3334724180
 H         -6.8012316099        0.7533929111        1.3971407487
 H         -6.3339691892        1.1643167499       -1.5833300114
 H         -6.9670049995       -0.2704541997       -0.7537229709
 O         -4.8642597698       -1.1585711595        0.1377237999
 C         -3.6679429299       -1.7885718295        0.4386628104
 O         -3.7912864501       -2.8458443592        1.0895091108
 H          1.5088147203       -1.3876267301       -0.0742016987
 C          1.0847569501       -0.8287920297        0.7425578610
 C         -0.2528596599       -0.9697972495        1.0767377707
 C         -0.7539043601       -0.2347244490        2.1484988603
 C          0.0565703798        0.6389736512        2.8460013401
 C          1.3846486099        0.7975667210        2.4913784703
 C          1.9012872901        0.0534291505        1.4376107208
 N          3.2623286301        0.1578523003        1.1013695410
 S          3.7561388905        0.0215831996       -0.5067802888
 O          3.0358049707        0.9548119293       -1.3433044794
 O          3.7043252004       -1.3646208206       -0.8968731483
 C          5.4573775205        0.5325597395       -0.3402576087
 C          6.3839020003       -0.3854871804        0.1167998019
 C          7.7010636003        0.0145038396        0.2760788820
 C          8.0684629205        1.3182435695       -0.0226775085
 C          7.1284006006        2.2276420393       -0.4833593691
 C          5.8089161806        1.8342912594       -0.6433208592
 H          5.0457544908        2.5036625193       -1.0071268196
 H          7.4173765907        3.2393197792       -0.7186798594
 H          9.0944586905        1.6268402694        0.1012874116
 H          8.4355467002       -0.6904150403        0.6308116424
 H          6.0540421402       -1.3894045703        0.3269010622
 H          3.7058896601        0.9535287004        1.5406157308
 H          2.0160094698        1.4885655512        3.0292017902
 H         -0.3498488403        1.2087765816        3.6683430598
 H         -1.7949203602       -0.3525118988        2.4194319202
 C         -1.1788365898       -1.9054643197        0.3376601309
 H         -1.4436974000       -2.7311091694        1.0153451012
 C         -0.5658004196       -2.4884032003       -0.9186017287
 C          0.2774137403       -3.7244818903       -0.8439017180
 C         -1.0910735096       -3.7862744605       -1.4512321883
 H         -1.1786168194       -3.9072269209       -2.5205393282
 H         -1.8794310598       -4.2668454302       -0.8899170682
 H          1.1378284804       -3.7986546607       -1.4923092378
 H          0.4201453300       -4.1721923099        0.1281305922
 H         -0.2897013194       -1.7264143206       -1.6401001289
 O         -1.3997570994        0.5488587397       -1.1512936301
