  62
        -98.94738877
 C         -2.5646450964        0.1269417392        0.4079348028
 C         -2.1784886980        0.7018339508       -0.8269947785
 C         -1.7409078560        2.1037630937       -0.7720085110
 C         -1.7141914292        2.7397761991        0.4131101488
 C         -1.2661550713        4.1577917587        0.6194246201
 C          0.2291881538        4.2371246101        0.9525302789
 C          1.1245173434        3.4608715574       -0.0136477501
 H          2.1593102168        3.6446666199        0.2862662871
 H          0.9494021314        2.3887767863        0.1096479549
 C          0.9451954973        3.8363138041       -1.4912434041
 H          1.9327318977        3.9262303872       -1.9483208327
 H          0.4586280840        4.8097575406       -1.5714453344
 C          0.1684274626        2.8049015777       -2.3122889481
 H          0.5778277653        1.8099709424       -2.1211149373
 H          0.3183904795        3.0285615633       -3.3723385116
 C         -1.3449458675        2.7579570570       -2.0654572182
 H         -1.7623053321        3.7657710597       -2.1310144826
 H         -1.7914076431        2.1472742574       -2.8558567066
 H          0.5236673128        5.2887086414        0.9579855672
 H          0.3837253007        3.8330429213        1.9559036356
 H         -1.4791298050        4.7321285730       -0.2803010788
 H         -1.8356317177        4.5768240300        1.4512209691
 O         -2.0800604850        2.1498027847        1.5812324436
 C         -2.4953396571        0.8291657191        1.6093935847
 O         -2.7842439733        0.4036107178        2.7482790381
 H         -0.4069412862       -1.0631002276        0.9803106768
 C         -0.5882300438       -1.9067816767        0.3295074012
 C         -1.8886600691       -2.2094556266       -0.0516421517
 C         -2.0987632428       -3.3091662380       -0.8737457066
 C         -1.0261991546       -4.0609220110       -1.3223749013
 C          0.2704045067       -3.7266940247       -0.9773023987
 C          0.4890744517       -2.6376910782       -0.1412358928
 N          1.7897813778       -2.2622675364        0.2488123751
 S          2.0986721872       -0.5974972718        0.2812189882
 O          1.6405008710       -0.0593932260        1.5387840443
 O          1.5820267418        0.0213431928       -0.9163637789
 C          3.8816803215       -0.5969283008        0.2581280495
 C          4.5555383428       -0.1684518498       -0.8690807856
 C          5.9418184007       -0.1959046094       -0.8716677904
 C          6.6254387280       -0.6516865670        0.2451254306
 C          5.9344721446       -1.0779409129        1.3701869836
 C          4.5491887247       -1.0508281838        1.3804165999
 H          3.9694738106       -1.3620643525        2.2338147625
 H          6.4692640004       -1.4294664762        2.2376697075
 H          7.7037262035       -0.6726833187        0.2403702259
 H          6.4811024947        0.1380630687       -1.7433231606
 H          3.9798694231        0.1803417147       -1.7114171425
 H          2.5020174262       -2.7453099998       -0.2836171823
 H          1.1061999315       -4.2992997170       -1.3501255968
 H         -1.2022955242       -4.9093472018       -1.9662079973
 H         -3.1007499254       -3.5702918613       -1.1728891642
 C         -3.0003055419       -1.3264338254        0.4631955541
 H         -3.1527519164       -1.5570069144        1.5286842151
 C         -4.3116007856       -1.5172810859       -0.2707226636
 C         -5.2809003332       -2.5708504231        0.1719899372
 C         -5.5845229764       -1.1238395994        0.4145854116
 H         -6.3598760173       -0.6512717315       -0.1693060040
 H         -5.5041416169       -0.7436204379        1.4228976017
 H         -5.0060913638       -3.1779272925        1.0213426681
 H         -5.8537907950       -3.0927697071       -0.5795788002
 H         -4.2269970177       -1.3068074097       -1.3306412786
 O         -2.2155847544        0.0811381119       -1.9222050253
