  62
        -98.94132141
 C         -1.0772433066       -1.2547348107        0.5346595053
 C         -1.5236595354       -0.5308050495       -0.5951494055
 C         -2.3240979852        0.6764576252       -0.3186146830
 C         -2.4940665100        1.0788595415        0.9522347522
 C         -3.2138727756        2.3042561026        1.4590412749
 C         -4.5663110463        2.6436790354        0.8165035080
 C         -5.3964091085        1.4294504766        0.3744474068
 H         -4.9666295885        0.5134861353        0.7839625189
 H         -6.4054614832        1.5239289306        0.7800711558
 C         -5.5123399477        1.3041204252       -1.1468231302
 H         -6.3773566954        0.6790941066       -1.3811559365
 H         -5.7022785844        2.2945864320       -1.5659198920
 C         -4.3035783466        0.6864193328       -1.8489065516
 H         -4.2352173028       -0.3763066520       -1.6012473002
 H         -4.4700146077        0.7542318199       -2.9264791653
 C         -2.9478421492        1.3323031884       -1.5178745048
 H         -2.2686135892        1.1387048911       -2.3523682663
 H         -3.0529086693        2.4071188036       -1.3908517004
 H         -5.1282181770        3.2198661769        1.5535304052
 H         -4.4107892611        3.2985954952       -0.0395847087
 H         -3.3511322090        2.1301151657        2.5290392744
 H         -2.5427811014        3.1629713618        1.3594331130
 O         -1.9650008246        0.3960786648        2.0095234291
 C         -1.2876026529       -0.7990491780        1.8348205559
 O         -0.9271633220       -1.3472023232        2.8969748502
 O         -1.2773264370       -0.8714404525       -1.7798590399
 C         -0.3317610766       -2.5653654775        0.3553194519
 C          0.9697952722       -2.3199733030       -0.3688496404
 C          1.3053814097       -2.9199217533       -1.5748670305
 C          2.5217155574       -2.6455658203       -2.1758158439
 C          3.4235430819       -1.7786588865       -1.5881265099
 C          3.1025646414       -1.1814642079       -0.3729962653
 C          1.8814847411       -1.4528593745        0.2230146486
 H          1.6398886984       -0.9944425165        1.1713933700
 N          4.0245219391       -0.3357362389        0.2641889889
 S          3.5486206824        1.0420349143        1.0733118795
 O          4.7846415755        1.7638032989        1.2878808218
 O          2.7977276032        0.7039968722        2.2551083171
 C          2.5348323680        1.9468041398       -0.0796255039
 C          3.1649462372        2.5969982604       -1.1236904439
 C          2.3983093065        3.2966402951       -2.0401724092
 C          1.0196082201        3.3362082917       -1.8959920538
 C          0.4032374215        2.6826843782       -0.8409788673
 C          1.1648350972        1.9739431218        0.0747360581
 H          0.7157310826        1.4506704947        0.9055118238
 H         -0.6677903768        2.7091080338       -0.7260634592
 H          0.4189899808        3.8816914101       -2.6064173108
 H          2.8747982377        3.8095120143       -2.8599612025
 H          4.2403640327        2.5602127809       -1.1862490230
 H          4.8745709918       -0.1750123176       -0.2562637614
 H          4.3733351717       -1.5698853519       -2.0560588218
 H          2.7693287723       -3.1130032945       -3.1165838860
 H          0.6142767351       -3.5970410398       -2.0479628641
 H         -0.0876625954       -2.9131570304        1.3699273154
 C         -1.2231688588       -3.5921676975       -0.3113065237
 C         -0.9596313389       -5.0533909542       -0.1121955829
 C         -2.1466113310       -4.4102008639        0.5383392143
 H         -3.1313948331       -4.6384096056        0.1587833137
 H         -2.1195750601       -4.2423220713        1.6056509688
 H         -1.1319402726       -5.7271854893       -0.9376579952
 H         -0.1257953618       -5.3286899719        0.5158135483
 H         -1.5938155752       -3.2643378935       -1.2752934042
