  62
        -98.94496375
 C         -1.8655883661       -0.4007888755        0.0376781876
 C         -2.9348105581       -0.5159976023        0.9668462051
 C         -4.0899727927        0.3588551042        0.7465746173
 C         -4.0793365299        1.2273798400       -0.2803371002
 C         -5.1665102836        2.2086378400       -0.6247513165
 C         -6.3059451824        1.6113363125       -1.4618994391
 C         -7.2412800535        0.6659493821       -0.7069815973
 H         -8.1099698942        0.4970759585       -1.3464901173
 H         -7.5959874205        1.1559252111        0.2003336397
 C         -6.6183199122       -0.6914229471       -0.3520631601
 H         -5.7242848662       -0.8515949897       -0.9590458578
 H         -7.3207144693       -1.4902720845       -0.6003048131
 C         -6.2502384571       -0.8540765379        1.1227471252
 H         -5.7854817002       -1.8345096474        1.2538346462
 H         -7.1564639660       -0.8271042575        1.7318599714
 C         -5.2753818747        0.2064488951        1.6510623452
 H         -4.9088317430       -0.1197231607        2.6274083047
 H         -5.7869171376        1.1613354649        1.7710303662
 H         -5.8736548396        1.0893248613       -2.3187142069
 H         -6.8989857892        2.4447645985       -1.8456410981
 H         -4.6943180061        3.0051426401       -1.2040858443
 H         -5.5733790195        2.6398718216        0.2904742601
 O         -3.0303851986        1.3252602466       -1.1363197566
 C         -1.9108903973        0.5134226349       -1.0146134517
 O         -1.0562866926        0.7235997560       -1.9002872272
 O         -2.9218122476       -1.3197006146        1.9362869809
 C         -0.6788781439       -1.3245423490        0.2561517499
 C          0.4719622633       -0.6082642910        0.9213312273
 C          0.9131030515       -0.9845471630        2.1843050366
 C          1.9899918520       -0.3465925094        2.7759460766
 C          2.6488634010        0.6771428500        2.1196622754
 C          2.2100479682        1.0640867753        0.8599652432
 C          1.1352972862        0.4198722343        0.2663046985
 H          0.7965806879        0.7305722727       -0.7107975437
 N          2.8877479798        2.0949912786        0.1753247568
 S          4.5194409569        1.8115746223       -0.0910678346
 O          5.2542983558        2.1029358758        1.1144633211
 O          4.8713264469        2.5974553441       -1.2523612361
 C          4.6088209738        0.0669597806       -0.4517229412
 C          4.0860162865       -0.3740134270       -1.6511150957
 C          4.0755675378       -1.7329246475       -1.9181710700
 C          4.5773932014       -2.6238591211       -0.9818453234
 C          5.0993611889       -2.1649731748        0.2172596872
 C          5.1143739893       -0.8063902337        0.4893642675
 H          5.5103472452       -0.4071521251        1.4085003644
 H          5.4896173446       -2.8605708593        0.9424186457
 H          4.5618504517       -3.6822196865       -1.1894467667
 H          3.6721117774       -2.0899151234       -2.8523841098
 H          3.7052447723        0.3467596832       -2.3573482499
 H          2.4341025175        2.3489194341       -0.6911963291
 H          3.4936536556        1.1830531363        2.5586203989
 H          2.3205125299       -0.6501941671        3.7574114414
 H          0.3980292623       -1.7769242921        2.7072851622
 H         -1.0419787597       -2.0899906028        0.9548188813
 C         -0.2073651098       -2.0144835037       -1.0101123973
 C          0.6205265676       -3.2573826986       -0.8910549659
 C         -0.7915482475       -3.3414862143       -1.3861922187
 H         -0.9636947870       -3.5499208097       -2.4315387904
 H         -1.5393221472       -3.7628261201       -0.7300992295
 H          1.4234347489       -3.4087243192       -1.5951324500
 H          0.8319780057       -3.6222364139        0.1023061689
 H          0.0245056691       -1.3281141398       -1.8137280472
