  62
        -98.94288156
 C         -1.5718039252       -1.3761360645        0.1486052218
 C         -0.8536378051       -2.2081761285       -0.7392730416
 C          0.4909835823       -2.6263894370       -0.3053501460
 C          0.9590237157       -2.2082573311        0.8835429714
 C          2.2762206858       -2.5151005197        1.5533038164
 C          3.5319717176       -2.5808044364        0.6785902064
 C          3.5778672582       -1.5569256777       -0.4643979626
 H          2.7768620369       -0.8233573847       -0.3517322631
 H          4.5234060734       -1.0136870995       -0.4195255152
 C          3.4666018441       -2.1958895106       -1.8497610007
 H          3.8596571782       -1.4950795119       -2.5904152459
 H          4.0856673213       -3.0956235897       -1.8821390821
 C          2.0425056563       -2.5445677139       -2.2764092335
 H          2.0906129800       -3.0421238501       -3.2485943167
 H          1.4738754177       -1.6200247480       -2.4173150007
 C          1.2659135526       -3.4435039083       -1.2986231352
 H          0.5209541092       -4.0011562945       -1.8733033359
 H          1.9274300416       -4.1548647252       -0.8096064338
 H          3.6387919831       -3.5822088884        0.2642592068
 H          4.3833675620       -2.4223504472        1.3423281929
 H          2.1675816374       -3.4619427139        2.0910570358
 H          2.3981613659       -1.7296618142        2.3034172414
 O          0.2182446195       -1.4274499759        1.7207563681
 C         -1.0425263380       -0.9736014591        1.3728550260
 O         -1.5755100049       -0.2349967769        2.2223714078
 O         -1.3170018576       -2.5891069239       -1.8489119522
 C         -2.9039475293       -0.7921380764       -0.2849890138
 C         -2.7888864036        0.7140062650       -0.3025784122
 C         -3.7798976457        1.5701427433        0.1598771976
 C         -3.5721491002        2.9392816597        0.1629848944
 C         -2.3757392878        3.4803894837       -0.2709843066
 C         -1.3813333969        2.6316185652       -0.7484721468
 C         -1.6100899873        1.2659152877       -0.7881243724
 H         -0.8380611759        0.6165653690       -1.1720952458
 N         -0.1544495426        3.1485812682       -1.1890202914
 S          1.2927887286        2.3340528168       -1.2238830031
 O          2.2261739466        3.3072199064       -1.7501319373
 O          1.1713572192        1.1121014222       -1.9810395814
 C          1.7960279953        1.9327809013        0.4453483509
 C          3.1524751913        1.7356040436        0.6279664050
 C          3.6220287109        1.3655254205        1.8767392055
 C          2.7294604616        1.1962945582        2.9245658866
 C          1.3744574552        1.4064422435        2.7300735182
 C          0.8984887120        1.7785039931        1.4811038522
 H         -0.1596931764        1.9172471061        1.3275592232
 H          0.6669314707        1.2616130202        3.5308931773
 H          3.0898916508        0.8982161135        3.8967818469
 H          4.6772355892        1.2036296184        2.0269495349
 H          3.8087831574        1.8785035534       -0.2153489266
 H         -0.0188095618        4.1370859818       -1.0428947408
 H         -2.2062504288        4.5456137043       -0.2387432272
 H         -4.3474084452        3.5951059926        0.5289212935
 H         -4.7082890533        1.1663025687        0.5290004805
 H         -3.0617587481       -1.1436087914       -1.3158102482
 C         -4.0338032454       -1.2996947303        0.5855833899
 C         -5.4148342859       -1.4522298153        0.0234660902
 C         -4.5896761995       -2.6661961148        0.3239385670
 H         -4.8623119867       -3.2825298391        1.1673328435
 H         -4.1703714852       -3.2199036565       -0.5036047447
 H         -6.2584692434       -1.2380715731        0.6622262721
 H         -5.5660730520       -1.1880376273       -1.0123936151
 H         -3.9304139021       -0.9906242383        1.6195623399
