  62
        -98.94439506
 C         -2.3444099207       -1.1357555503        0.2423862091
 C         -2.3685465763        0.1201549192       -0.4114704982
 C         -3.3408660670        1.0910024439        0.1087964808
 C         -4.1101748667        0.7741874968        1.1655247302
 C         -5.1246282214        1.6678715977        1.8258927072
 C         -6.4967389242        1.6733389725        1.1380316940
 C         -6.5515003840        2.4121695772       -0.1996826265
 H         -7.6057252764        2.5265502756       -0.4594419707
 H         -6.1358215454        3.4129282650       -0.0780650046
 C         -5.8354287276        1.6916910572       -1.3505122143
 H         -5.6735399322        0.6455896926       -1.0808582998
 H         -6.4727107010        1.6990143458       -2.2375929940
 C         -4.4962191573        2.3111188553       -1.7505864029
 H         -4.6601166156        3.3149307758       -2.1488961067
 H         -4.0594621624        1.7010446637       -2.5453937714
 C         -3.4760254354        2.4006860098       -0.6079999527
 H         -3.7600949843        3.1886791549        0.0893401531
 H         -2.5003717024        2.6484727647       -1.0343378902
 H         -7.2009815417        2.1523256680        1.8220660025
 H         -6.8207861726        0.6397274398        0.9970778672
 H         -5.2513884659        1.2930126461        2.8438000260
 H         -4.7370188582        2.6858539823        1.8767886168
 O         -4.0327507457       -0.4317578947        1.7879529779
 C         -3.1631658226       -1.4112191776        1.3411610266
 O         -3.2090751344       -2.4717831864        1.9956794121
 O         -1.6288850380        0.4297526970       -1.3829881137
 C         -1.3878707749       -2.2402311405       -0.1824021942
 C          0.0101253559       -1.8202188265        0.2017016260
 C          0.4614003793       -2.0592982065        1.4967426641
 C          1.7109788586       -1.6265958038        1.8988674822
 C          2.5323250497       -0.9372699913        1.0231162418
 C          2.0829665827       -0.6772049401       -0.2638590630
 C          0.8368781863       -1.1339074561       -0.6735483343
 H          0.4941227305       -0.9122418226       -1.6716383425
 N          2.9020302960        0.0348776559       -1.1571139670
 S          3.6312550052        1.4447172606       -0.6107793881
 O          2.8649684279        2.0776685516        0.4378832169
 O          3.8705628848        2.2332936313       -1.8001306371
 C          5.1966938394        0.8832173169        0.0289292886
 C          5.9972316512        0.1122141329       -0.7912224984
 C          7.2219024218       -0.3246641451       -0.3123714462
 C          7.6254533944        0.0177223843        0.9697198456
 C          6.8123933946        0.7957538497        1.7793938272
 C          5.5853820641        1.2350469212        1.3066222833
 H          4.9174574941        1.8367970233        1.9025470591
 H          7.1275255125        1.0616712280        2.7756556731
 H          8.5790457491       -0.3238469816        1.3402777900
 H          7.8568285764       -0.9300389624       -0.9390160279
 H          5.6482866286       -0.1292468505       -1.7812314087
 H          2.4695302850        0.1873463561       -2.0573489889
 H          3.5028198310       -0.5862638154        1.3336875000
 H          2.0493355409       -1.8236961598        2.9048195873
 H         -0.1901191052       -2.5755218459        2.1882823262
 H         -1.6557932598       -3.1165942182        0.4222804643
 C         -1.5393837650       -2.5963635711       -1.6465994274
 C         -0.9301740147       -3.8673878683       -2.1548754021
 C         -2.4186502404       -3.7462198977       -2.0318946579
 H         -3.0070280055       -3.6643398419       -2.9336036369
 H         -2.9123765280       -4.2861832418       -1.2370579769
 H         -0.4945478757       -3.8724762603       -3.1422749214
 H         -0.4118987819       -4.4896453441       -1.4411497637
 H         -1.5399366093       -1.7357890703       -2.3033944147
