  62
        -98.93803201
 C          2.3112949415        1.3663340843       -0.0083141463
 C          3.0352474146        0.5960326841        0.9313698302
 C          3.7569617825       -0.5689500882        0.3992037781
 C          3.6789936315       -0.8421495248       -0.9160792231
 C          4.2883938856       -2.0355904179       -1.5954561257
 C          3.4230596029       -3.2863765966       -1.3397982718
 C          4.1052654467       -4.3656594047       -0.4979106936
 H          3.3353495122       -5.0810006244       -0.2005478954
 H          4.8260227019       -4.8978072711       -1.1222003281
 C          4.8418594127       -3.8757121175        0.7526226450
 H          5.8145372059       -3.4705441724        0.4702084383
 H          5.0375200140       -4.7549924048        1.3699128339
 C          4.1035809856       -2.8328564369        1.6017407117
 H          4.2820935517       -3.0630092116        2.6541047123
 H          3.0267592997       -2.9001250878        1.4409136961
 C          4.5638880354       -1.3803103972        1.3748126135
 H          4.4872754409       -0.8374411436        2.3215526772
 H          5.6152507703       -1.3727734543        1.0752575110
 H          2.4969852274       -2.9706059720       -0.8527884888
 H          3.1337632657       -3.7299833837       -2.2938222487
 H          4.3289340020       -1.8154030595       -2.6623217551
 H          5.3015551526       -2.1896779102       -1.2309509036
 O          2.9560327396       -0.0896912020       -1.7854871366
 C          2.2438338730        1.0221259833       -1.3584755645
 O          1.6141371673        1.6046557328       -2.2602893562
 O          3.0711892809        0.8670451520        2.1632237007
 C          1.5230319584        2.5697211815        0.4809669021
 C          0.0520250526        2.3023928231        0.2766030122
 C         -0.7967511002        3.1320137417       -0.4423952084
 C         -2.1251297969        2.7849778309       -0.6239702278
 C         -2.6353562252        1.6158072494       -0.0908337124
 C         -1.7963212269        0.7832961505        0.6390414240
 C         -0.4691911867        1.1340504517        0.8207760213
 H          0.1860484421        0.4802768588        1.3844486912
 N         -2.3076272221       -0.4094707970        1.1911923491
 S         -2.9523628273       -1.5180233246        0.1010791124
 O         -2.8335438530       -2.8042339092        0.7543078577
 O         -2.3373046311       -1.4002747714       -1.2014787821
 C         -4.6714352488       -1.0649506947        0.0166679980
 C         -5.4009302621       -1.0660586762        1.1896911857
 C         -6.7400410546       -0.7130111482        1.1443415730
 C         -7.3238503028       -0.3699061442       -0.0663025543
 C         -6.5785096505       -0.3777612824       -1.2354211757
 C         -5.2376358918       -0.7283438303       -1.1969746867
 H         -4.6156570837       -0.7413639917       -2.0779365088
 H         -7.0339040109       -0.1113120764       -2.1756549521
 H         -8.3662693895       -0.0950329673       -0.0990824188
 H         -7.3230808476       -0.7062513457        2.0510797950
 H         -4.9086320390       -1.3430851281        2.1068543377
 H         -1.6468539042       -0.8768554460        1.7965975363
 H         -3.6671463039        1.3403562632       -0.2368109104
 H         -2.7718161095        3.4347678941       -1.1935286371
 H         -0.4157736343        4.0424624319       -0.8743289074
 H          1.7134991452        2.6218941501        1.5630871138
 C          2.0157284811        3.8464843064       -0.1636146448
 C          1.8126022325        5.1603220420        0.5282987578
 C          3.1834126379        4.5612082943        0.4454140509
 H          3.9087274628        5.0157348216       -0.2124924307
 H          3.6133533736        4.1369097477        1.3410620650
 H          1.5980088730        6.0313069237       -0.0719558137
 H          1.3115924082        5.1482278366        1.4843048267
 H          1.9557607039        3.8193803785       -1.2454530137
