  62
        -98.94520082
 C         -2.2649073228       -0.7388819355       -0.0147632455
 C         -3.2672532428       -0.6582369561        0.9850071006
 C         -4.1317383140        0.5250343395        0.9361258715
 C         -3.9128343848        1.4719024468        0.0057397553
 C         -4.6858683346        2.7531889179       -0.1520911601
 C         -5.9842442917        2.6059814079       -0.9575847453
 C         -7.1196397495        1.8796311115       -0.2351719045
 H         -7.2775230922        2.3368394504        0.7420651325
 H         -8.0266573905        2.0414354945       -0.8209337906
 C         -6.9010097829        0.3691655311       -0.0706302368
 H         -6.1184538277        0.0378440475       -0.7570977633
 H         -7.8142892635       -0.1631267573       -0.3456946694
 C         -6.5317664047       -0.0669336029        1.3471850020
 H         -6.3628767600       -1.1466419707        1.3403775743
 H         -7.3646197906        0.1395722471        2.0228706116
 C         -5.2715737261        0.6063252393        1.9063419480
 H         -5.4809024562        1.6450863071        2.1607136124
 H         -4.9728293720        0.0762998884        2.8139459410
 H         -5.7578189083        2.0897621397       -1.8934006813
 H         -6.3266653309        3.6126260694       -1.2083450587
 H         -4.0291372382        3.4481450369       -0.6801044454
 H         -4.9111084606        3.1679821114        0.8309025342
 O         -2.9166593439        1.3763158277       -0.9141946952
 C         -2.0804063178        0.2692204910       -0.9609677462
 O         -1.2385065535        0.3126932946       -1.8796575755
 O         -3.4292219743       -1.5337899690        1.8755251560
 C         -1.3448543727       -1.9491113904       -0.0055019748
 C          0.0330470083       -1.4847437427        0.3950454082
 C          0.3133946828       -1.2783754203        1.7433115166
 C          1.5416655420       -0.7860698557        2.1410685400
 C          2.5132253753       -0.4793327655        1.2036115889
 C          2.2365014751       -0.6641577347       -0.1435810509
 C          1.0097750884       -1.1813905513       -0.5399455459
 H          0.8048166706       -1.3079687239       -1.5911052016
 N          3.2112671612       -0.3444751434       -1.1044378207
 S          4.0111883182        1.1248297905       -0.9672483885
 O          3.2028246125        2.1220130246       -0.3041629972
 O          4.4546820925        1.4405907064       -2.3079368444
 C          5.4354640317        0.7309569977        0.0291466679
 C          5.7190238015        1.4815522820        1.1532698804
 C          6.8379320844        1.1636075478        1.9076236898
 C          7.6498899753        0.1067704666        1.5258378744
 C          7.3531046991       -0.6356720524        0.3924945339
 C          6.2369920497       -0.3221505169       -0.3664897854
 H          5.9732262442       -0.8719513071       -1.2543371003
 H          7.9866969709       -1.4570099789        0.0988984319
 H          8.5190220870       -0.1395079596        2.1151126709
 H          7.0699451813        1.7403899729        2.7885418305
 H          5.0552672364        2.2903934160        1.4150813935
 H          2.8972584286       -0.4876632059       -2.0538940112
 H          3.4687906936       -0.0826526745        1.5051367840
 H          1.7461080648       -0.6352124025        3.1901686099
 H         -0.4531693973       -1.4964884299        2.4738153972
 H         -1.7309402305       -2.5987559968        0.7915199598
 C         -1.3841638170       -2.7086348877       -1.3145736649
 C         -0.8224212659       -4.0969087092       -1.3724986953
 C         -2.3034603785       -3.8837290110       -1.4509030155
 H         -2.7992456720       -4.0415111279       -2.3970679197
 H         -2.9050302826       -4.1491592796       -0.5940060740
 H         -0.2991652264       -4.4052792554       -2.2646397245
 H         -0.4165561927       -4.5058627994       -0.4597813077
 H         -1.2638168589       -2.0742143271       -2.1844504940
