  62
        -98.94032888
 C         -2.0378200415       -1.0002562055        0.2208134962
 C         -2.3283445550        0.3858674510        0.1550979270
 C         -3.7028411424        0.7655162008        0.5179816924
 C         -4.5774314117       -0.1687623587        0.9287132164
 C         -6.0042425918        0.0692413880        1.3423696331
 C         -6.9916535697        0.1281077341        0.1687145762
 C         -6.9104195080        1.3924494126       -0.6877969161
 H         -7.7931946120        1.4011371205       -1.3302502740
 H         -6.9684024498        2.2705424699       -0.0437607460
 C         -5.6576190358        1.4811850510       -1.5705002044
 H         -5.2005511188        0.4924479701       -1.6545478163
 H         -5.9437006863        1.7873368056       -2.5793213230
 C         -4.6042986265        2.4735834844       -1.0775190910
 H         -3.7480498120        2.4309731572       -1.7558004713
 H         -5.0100308202        3.4870568529       -1.1140813654
 C         -4.0967679671        2.2014193332        0.3447301212
 H         -4.8568157047        2.4790243481        1.0747245805
 H         -3.2070318660        2.8128572113        0.5153265394
 H         -6.8372787847       -0.7501914157       -0.4624924491
 H         -7.9987485570        0.0630470902        0.5869625243
 H         -6.0695946701        0.9908644767        1.9214293142
 H         -6.2845420445       -0.7668814594        1.9866988908
 O         -4.2414868829       -1.4816599726        1.0367926821
 C         -2.9801764033       -1.9271197401        0.6778508040
 O         -2.8180459051       -3.1559886412        0.8170199434
 O         -1.5069009798        1.2728551846       -0.1903348179
 C         -0.6747690277       -1.5653123366       -0.1458631164
 C          0.4147653113       -0.7711176162        0.5290266706
 C          0.6456123846       -0.9599340872        1.8879661612
 C          1.6223239244       -0.2366909806        2.5470602184
 C          2.3853204806        0.6942586333        1.8650105002
 C          2.1582955863        0.8938146135        0.5098164012
 C          1.1898617315        0.1525581751       -0.1542678134
 H          1.0084746737        0.3313722887       -1.2025649287
 N          2.9210307478        1.8491426794       -0.1864167646
 S          4.5860265672        1.7673528426       -0.0656139036
 O          5.0042834404        2.2497981985        1.2265323029
 O          5.0890811409        2.4926495518       -1.2103976934
 C          4.9548986409        0.0292496260       -0.2178364903
 C          4.8541726184       -0.5466438119       -1.4690810247
 C          5.0671733290       -1.9090006566       -1.5998094044
 C          5.3671080224       -2.6703095236       -0.4801592254
 C          5.4650189026       -2.0772519790        0.7687758935
 C          5.2558741209       -0.7139495385        0.9050919993
 H          5.3271257895       -0.2144513186        1.8570405121
 H          5.7000805064       -2.6718180234        1.6368217484
 H          5.5270646139       -3.7320545092       -0.5828482542
 H          4.9951675334       -2.3728346288       -2.5705819512
 H          4.6270609344        0.0801947503       -2.3165239318
 H          2.6309738369        1.9768021456       -1.1445620050
 H          3.1420804460        1.2784381745        2.3632168033
 H          1.7875470283       -0.3934721867        3.6022830372
 H          0.0401319678       -1.6775232715        2.4249199438
 H         -0.6669549554       -2.5793731699        0.2844517607
 C         -0.4481276604       -1.7303297439       -1.6419321604
 C         -1.5624388279       -2.1955334807       -2.5300392980
 C         -1.0274331596       -0.8031397511       -2.6658901373
 H         -0.4320486480       -0.5680255975       -3.5364975601
 H         -1.6339565155        0.0187431911       -2.3200213094
 H         -1.3402687767       -2.9134362320       -3.3050015002
 H         -2.5344781350       -2.3290286595       -2.0773681230
 H          0.5374160440       -2.1337158818       -1.8544669840
