  62
        -98.93724588
 C         -2.2940011096       -0.3282581481       -0.3765990406
 C         -3.5028889597       -0.6382696758       -1.0509009116
 C         -4.7205924497       -0.6522019383       -0.2305573715
 C         -4.6223316196       -0.4220655725        1.0912163392
 C         -5.7855271995       -0.3476047754        2.0364620495
 C         -6.3118765193        1.0895169543        2.1573279841
 C         -6.5494383693        1.7770410886        0.8126774763
 H         -5.5901163593        1.9149900401        0.3082769267
 H         -6.9465609691        2.7726041480        1.0223658895
 C         -7.5105583894        1.0296503318       -0.1223529460
 H         -8.2096235994        1.7491769632       -0.5536648737
 H         -8.0976431595        0.3095838800        0.4487126517
 C         -6.8303163296        0.3143440254       -1.2910675683
 H         -6.1687275695        1.0109724470       -1.8125553661
 H         -7.6043193397        0.0073438578       -1.9994415693
 C         -6.0218351798       -0.9370120959       -0.9263469224
 H         -5.7570945699       -1.4452837929       -1.8582056040
 H         -6.6381107498       -1.6121844577       -0.3293614745
 H         -5.5830432192        1.6789542224        2.7184616860
 H         -7.2429331293        1.0690279126        2.7265752841
 H         -5.4526727695       -0.6873448986        3.0185310084
 H         -6.5762424796       -1.0064723541        1.6828043174
 O         -3.4399874995       -0.1868616447        1.7135724799
 C         -2.2458320295       -0.1304868225        1.0040770400
 O         -1.2493121395        0.0897894750        1.7166351606
 O         -3.5583262198       -0.8976370319       -2.2828897924
 C         -1.0242216097       -0.2839007956       -1.2057872006
 C          0.0810400803       -1.0638932679       -0.5403902131
 C         -0.1150423399       -2.4209792887       -0.2927553174
 C          0.8726403100       -3.1821749107        0.2997675901
 C          2.0894788701       -2.6138720319        0.6347975118
 C          2.2939707503       -1.2612956212        0.3949864461
 C          1.2909342103       -0.4938677392       -0.1816265314
 H          1.4739926405        0.5568932412       -0.3332425180
 N          3.5092665104       -0.6459471324        0.7333398380
 S          4.1026514905        0.5537101508       -0.2947862482
 O          3.5756313707        1.8312776395        0.1144611959
 O          3.8723169104        0.1813826652       -1.6726858893
 C          5.8455849705        0.4729248993        0.0779715015
 C          6.3365257606        1.1883727458        1.1537025637
 C          7.6853649607        1.0970097647        1.4590031834
 C          8.5158538805        0.2960619770        0.6892292208
 C          8.0091902003       -0.4146916595       -0.3884987315
 C          6.6612216203       -0.3286143483       -0.6987936311
 H          6.2251226302       -0.8544757156       -1.5329213928
 H          8.6578094002       -1.0335179376       -0.9873346035
 H          9.5652258405        0.2277915761        0.9288142105
 H          8.0834550708        1.6505415920        2.2940402151
 H          5.6548498708        1.8040110541        1.7172986457
 H          4.2261819503       -1.3039664434        1.0057505959
 H          2.8672991901       -3.2095249835        1.0881814699
 H          0.7008066299       -4.2308189213        0.4915073067
 H         -1.0612617400       -2.8683235277       -0.5671734888
 H         -1.2895296098       -0.8136142226       -2.1373732622
 C         -0.5987622095        1.1177474356       -1.6165466761
 C         -1.6029045094        2.2169354963       -1.7869395725
 C         -0.6150031593        2.2725690526       -0.6623568524
 H          0.1932344808        2.9881537926       -0.7153543802
 H         -0.9612699093        2.0851978794        0.3420079270
 H         -1.4827904193        2.8987630589       -2.6153159204
 H         -2.6328287394        1.9931096557       -1.5490941432
 H          0.2176711104        1.0974243278       -2.3337814962
