  62
        -98.94759760
 C          2.5309041611       -0.2875986922       -0.0052725131
 C          2.2169934349       -1.2944363698        0.9373433971
 C          1.5842059693       -2.5058368365        0.4019477512
 C          1.3612127440       -2.6000203353       -0.9215419165
 C          0.7235140088       -3.7766711311       -1.6024353703
 C         -0.7926782735       -3.5989977489       -1.7500964461
 C         -1.5049120331       -3.2033174071       -0.4563666658
 H         -1.2187546495       -2.1832349486       -0.1887492378
 H         -2.5761408160       -3.1804952139       -0.6723795226
 C         -1.2456529978       -4.1346480829        0.7354553090
 H         -0.8811547137       -5.1003252885        0.3818573214
 H         -2.1934158785       -4.3104856180        1.2484646951
 C         -0.2763474125       -3.5716694252        1.7771673604
 H         -0.5649457033       -2.5445469098        2.0190116482
 H         -0.3735759924       -4.1654779782        2.6903751157
 C          1.2064197621       -3.5803909811        1.3817647092
 H          1.7943573613       -3.3821374653        2.2829383198
 H          1.4816749359       -4.5669012372        1.0017658805
 H         -1.2118982694       -4.5337083061       -2.1285839744
 H         -0.9787845817       -2.8136194559       -2.4863579401
 H          1.1647676881       -3.8727387399       -2.5964138017
 H          0.9400947497       -4.6773850681       -1.0307127994
 O          1.6900161415       -1.6187027205       -1.7999014381
 C          2.2320010390       -0.4209971574       -1.3611674478
 O          2.4244926962        0.4168496974       -2.2639494338
 H          0.4983676782        0.8743507537        0.9908443107
 C          0.7434027545        1.8256951596        0.5413985009
 C          2.0654223567        2.1136971022        0.2288739512
 C          2.3592003674        3.3536183489       -0.3224290970
 C          1.3432981994        4.2574881040       -0.5858703996
 C          0.0219635115        3.9399248383       -0.3298739738
 C         -0.2787658225        2.7080590437        0.2406909411
 N         -1.6039825232        2.3259600123        0.5231424260
 S         -1.9688332878        0.6923207486        0.2566995782
 O         -1.6304893159       -0.0540196003        1.4429375587
 O         -1.3763593837        0.2494311284       -0.9841806438
 C         -3.7434372025        0.7750196236        0.1019777874
 C         -4.5031901639        0.8874655422        1.2511913915
 C         -5.8807252210        0.9850648864        1.1362673620
 C         -6.4723460582        0.9682001324       -0.1182898705
 C         -5.6971377219        0.8514937759       -1.2621699492
 C         -4.3183738402        0.7555353018       -1.1542919076
 H         -3.6742289545        0.6555081074       -2.0134274609
 H         -6.1593094404        0.8343414126       -2.2359900782
 H         -7.5447104903        1.0434136482       -0.2050787649
 H         -6.4866154716        1.0726514561        2.0235511588
 H         -3.9986196066        0.8854496197        2.2032006677
 H         -2.2844473355        2.9310915765        0.0828028045
 H         -0.7693072768        4.6338363722       -0.5699202673
 H          1.5833536580        5.2158228593       -1.0210650134
 H          3.3793940884        3.6062752232       -0.5610569149
 C          3.0890105352        1.0353671154        0.4915168536
 H          3.1945197663        0.9174787471        1.5809056678
 C          4.4487026791        1.3249552599       -0.1055374194
 C          5.4382515925        2.1635002589        0.6457291806
 C          5.6592306230        0.6882519596        0.5064732553
 H          6.4445522725        0.3410659063       -0.1478212067
 H          5.5038011724        0.0617656792        1.3727654922
 H          5.1405647346        2.5410355894        1.6122440332
 H          6.0774998686        2.8304506275        0.0873174855
 H          4.4179684315        1.4076444701       -1.1859474278
 O          2.4630553073       -1.1858246974        2.1709317480
