  62
        -98.94593830
 C         -1.5753366199       -1.5610520699       -0.2841360598
 C         -1.4434293602       -0.1925896600       -0.6236766002
 C         -2.7015553004        0.5591570697       -0.7403859105
 C         -3.8706446302       -0.0747411605       -0.5375154303
 C         -5.2173154704        0.5875783592       -0.5573444706
 C         -5.6137076805        1.0778288396        0.8427573392
 C         -4.5214672007        1.8794994401        1.5513564990
 H         -4.9246266008        2.1918842703        2.5172309289
 H         -3.6723231606        1.2230519103        1.7552210992
 C         -4.0339604210        3.1125495699        0.7777483386
 H         -4.7637729510        3.3807330595        0.0129054285
 H         -3.9659422512        3.9545095102        1.4698489283
 C         -2.6568311009        2.9530980200        0.1304713187
 H         -1.9397737409        2.5932915904        0.8724957988
 H         -2.3224298311        3.9399836700       -0.1991633616
 C         -2.5981703907        2.0182259096       -1.0835898810
 H         -3.3667941207        2.3012064392       -1.8054296411
 H         -1.6172163107        2.1420394197       -1.5508563710
 H         -6.5148272507        1.6873046094        0.7527130490
 H         -5.8531329804        0.2077854298        1.4587239795
 H         -5.1953964606        1.4234712190       -1.2537724209
 H         -5.9550329702       -0.1398760110       -0.9001083004
 O         -3.9561802300       -1.3960057004       -0.2333660099
 C         -2.8145586398       -2.1671310601       -0.0830572596
 O         -3.0319463795       -3.3562732100        0.2275515708
 H          2.2585285300       -1.4050841390       -0.2416827397
 C          1.8066317900       -1.3102836388        0.7305766302
 C          0.5274217501       -1.7843436290        0.9684895303
 C         -0.0082435100       -1.6516816887        2.2480268403
 C          0.7166344799       -1.0532614982        3.2594588601
 C          1.9870732098       -0.5612280980        3.0132084200
 C          2.5311628898       -0.6924031683        1.7417680300
 N          3.8209292197       -0.2180066781        1.4679923299
 S          4.2152755496        0.4102150715       -0.0261553803
 O          4.3634682299       -0.6511949588       -0.9909274599
 O          5.4125197395        1.1857528118        0.2307203095
 C          2.9037131294        1.5166378010       -0.5119722207
 C          2.3937491592        2.4033190812        0.4140912590
 C          1.4284457090        3.3100434309        0.0107911087
 C          1.0000978890        3.3232997004       -1.3065568513
 C          1.5208385293        2.4261002502       -2.2236102210
 C          2.4801032694        1.5113415105       -1.8236330407
 H          2.9018007696        0.7872846504       -2.5029290004
 H          1.1762910393        2.4280053098       -3.2457660410
 H          0.2502015589        4.0336876501       -1.6186419016
 H          1.0096769488        4.0012591110        0.7249848984
 H          2.7466278292        2.3781091216        1.4325875490
 H          4.2621841096        0.2927019722        2.2181376598
 H          2.5532743296       -0.0845457176        3.7988577198
 H          0.2880388298       -0.9592210480        4.2459322801
 H         -1.0073070199       -2.0234308189        2.4336956604
 C         -0.3281156497       -2.4093668995       -0.1058547995
 H         -0.6704511295       -3.3914120695        0.2504264508
 C          0.3874677403       -2.5900617898       -1.4271533694
 C          1.3191254506       -3.7471973897       -1.6204993690
 C         -0.0037157694       -3.7232872702       -2.3247702190
 H         -0.0186576394       -3.5551906906       -3.3912179691
 H         -0.7815457693       -4.3876787603       -1.9768664688
 H          2.2181304706       -3.5935674997       -2.1985274990
 H          1.4415276807       -4.4321549794       -0.7949130188
 H          0.6434508301       -1.6479097199       -1.8984242897
 O         -0.3379007803        0.3735160302       -0.8162991704
