  62
        -98.94497111
 C          2.4383539333        1.1705404899       -0.0720671598
 C          3.1783554809        0.4543497702        0.9066893107
 C          3.8213286100       -0.7850336567        0.4618378326
 C          3.7003464551       -1.1728985941       -0.8202569429
 C          4.3037539208       -2.4062171095       -1.4349234506
 C          3.4661070604       -3.6753244768       -1.2255564157
 C          3.4860747513       -4.2401116523        0.1954790667
 H          4.5191036017       -4.3515163082        0.5265400068
 H          3.0483459345       -5.2391764221        0.1478534619
 C          2.7015743220       -3.4078711116        1.2196709040
 H          2.0840503709       -4.0710419458        1.8298443659
 H          2.0178565450       -2.7337026528        0.6967772183
 C          3.5722058660       -2.5930329786        2.1767805561
 H          4.1562991527       -3.2693979351        2.8047028620
 H          2.9123887650       -2.0128564838        2.8267269222
 C          4.5331621253       -1.6175821004        1.4848403093
 H          5.3567589910       -2.1628032773        1.0246783156
 H          4.9377280556       -0.9406820115        2.2411304164
 H          3.8558159320       -4.4387254378       -1.9030488801
 H          2.4341553175       -3.4660127079       -1.5192225984
 H          5.3074606596       -2.5610606020       -1.0381446265
 H          4.3779685485       -2.2153506210       -2.5077100606
 O          3.0053659568       -0.4492180172       -1.7352009792
 C          2.3338448213        0.7138556616       -1.3856807317
 O          1.7124292986        1.2257880940       -2.3405545531
 O          3.2996049295        0.8415539471        2.0988559950
 C          1.7228117909        2.4256894732        0.4044771921
 C          0.2765269568        2.0923879794        0.6820759245
 C         -0.2056274749        2.0300206674        1.9843883222
 C         -1.5139486271        1.6545869191        2.2354084991
 C         -2.3626049566        1.3199172247        1.1950501693
 C         -1.8861957861        1.3706606901       -0.1080080616
 C         -0.5843113639        1.7724224072       -0.3587560956
 H         -0.2183285971        1.7884071894       -1.3748272343
 N         -2.7329349790        0.9747115857       -1.1713110879
 S         -3.0369726565       -0.6848151456       -1.1980411754
 O         -1.9332031986       -1.4328933038       -0.6367368372
 O         -3.3963101993       -0.9951448795       -2.5648032343
 C         -4.4768312659       -0.8532340803       -0.1644314242
 C         -4.3984820968       -1.5633206916        1.0173589944
 C         -5.5315834533       -1.6728257730        1.8086933722
 C         -6.7152910944       -1.0732302354        1.4063064326
 C         -6.7776679616       -0.3653546156        0.2149769405
 C         -5.6491521041       -0.2529605799       -0.5812150023
 H         -5.6527588122        0.2820118910       -1.5161299880
 H         -7.7000686063        0.0987564562       -0.0947107241
 H         -7.5946422707       -1.1586866481        2.0249760599
 H         -5.4847744406       -2.2228863476        2.7347887953
 H         -3.4542665841       -2.0065244041        1.2909326315
 H         -2.3586395484        1.2414564169       -2.0727239302
 H         -3.3794447036        1.0153328771        1.3824000113
 H         -1.8739182747        1.6127849608        3.2519946478
 H          0.4624345682        2.2562956016        2.8027161869
 H          2.1982985053        2.6797715658        1.3612898692
 C          1.8667689839        3.6076869574       -0.5317291359
 C          1.6212882890        4.9863486654        0.0017057891
 C          3.0135382909        4.5532498049       -0.3441917392
 H          3.4836031710        4.9707482994       -1.2218808566
 H          3.7011642580        4.3505279294        0.4638397062
 H          1.1325329605        5.7055380581       -0.6372507639
 H          1.3646435997        5.0784454877        1.0460963220
 H          1.5615344149        3.3974855129       -1.5483321071
