  62
        -98.93762305
 C         -2.1480625550       -1.1520721055        0.4762387764
 C         -2.3957468047       -0.3463365368       -0.6609626645
 C         -3.2585576484        0.8268900506       -0.4440690021
 C         -3.7041487881        1.0957780283        0.7964295596
 C         -4.6523242728        2.2018881513        1.1633475416
 C         -6.0921719098        1.8112154475        0.7724909777
 C         -6.7054690861        2.6799882259       -0.3258376274
 H         -7.6175129449        2.1836039227       -0.6638656247
 H         -6.9932339228        3.6425079664        0.1021801904
 C         -5.8099865459        2.9560732185       -1.5375364866
 H         -5.0998969361        3.7487962285       -1.2969883754
 H         -6.4555214730        3.3461651182       -2.3272914188
 C         -5.0330181409        1.7525627501       -2.0867043575
 H         -5.5324857476        0.8197788621       -1.8241928928
 H         -5.0322419714        1.8176318108       -3.1765824955
 C         -3.5595829887        1.6835146404       -1.6425953140
 H         -2.9686564720        1.2456616497       -2.4528219549
 H         -3.1796124420        2.6951992483       -1.4733189400
 H         -6.7353433303        1.8676832014        1.6519320165
 H         -6.0879885087        0.7671520220        0.4526469165
 H         -4.5776581697        2.3497953004        2.2409699371
 H         -4.3548445787        3.1216526197        0.6643917096
 O         -3.3936614925        0.3294309832        1.8750491568
 C         -2.6141206324       -0.8083673738        1.7441634424
 O         -2.4022140723       -1.4128334271        2.8158545164
 H          0.2670471919       -0.6453765112        1.5518493249
 C          0.7689392237       -1.0746773784        0.6923971131
 C          0.1016439513       -2.0279941492       -0.0678226573
 C          0.7522752385       -2.5722632362       -1.1662370315
 C          2.0318283345       -2.1584629041       -1.4961206883
 C          2.6914638541       -1.2095739942       -0.7374010828
 C          2.0513523699       -0.6619916329        0.3673279247
 N          2.7205003088        0.2869175794        1.1613163412
 S          3.4276523565        1.6048503780        0.3963350286
 O          3.4893146605        2.6372990429        1.4085699711
 O          2.7385118880        1.9446925780       -0.8270422203
 C          5.0802582303        1.0466572672        0.0378265966
 C          5.5582227934        1.0932283907       -1.2571049923
 C          6.8494933335        0.6568030280       -1.5105393763
 C          7.6353330721        0.1850328247       -0.4702816798
 C          7.1413150172        0.1480562007        0.8253046430
 C          5.8519953791        0.5838646803        1.0857096379
 H          5.4312526680        0.5751015044        2.0773250239
 H          7.7553019964       -0.2192787802        1.6317498188
 H          8.6388590103       -0.1557464775       -0.6704517098
 H          7.2352982181        0.6855215316       -2.5169119355
 H          4.9081755999        1.4621462929       -2.0346158229
 H          2.1841682939        0.5913164024        1.9611797119
 H          3.6865418624       -0.8848350164       -0.9935731237
 H          2.5233585313       -2.5834196620       -2.3579005786
 H          0.2547813777       -3.3114209846       -1.7717076467
 C         -1.2983307773       -2.4056711119        0.3536352755
 H         -1.2405793197       -2.8300894346        1.3666459073
 C         -1.9639505403       -3.4124264950       -0.5598103155
 C         -1.6771528033       -4.8741872887       -0.3993038487
 C         -3.0098101877       -4.3228626357        0.0073555350
 H         -3.8731057294       -4.5559834528       -0.5976551143
 H         -3.2283649803       -4.2323290167        1.0617359749
 H         -1.6277056592       -5.4906503599       -1.2839542973
 H         -0.9906047648       -5.1652445790        0.3811475953
 H         -2.1268037815       -3.0265123924       -1.5591265765
 O         -1.9258775636       -0.5932615644       -1.8019382806
