  62
        -98.94185104
 C          1.0711439602        1.2929360200        0.0657620699
 C          1.5795845803        0.2870048901        0.9165858599
 C          2.5683793005       -0.6425108298        0.3383386800
 C          2.9163424905       -0.4930355697       -0.9532455200
 C          3.9226513607       -1.2932483795       -1.7354863700
 C          5.3753351906       -0.9134187293       -1.3972230799
 C          5.6549716605       -0.6758187993        0.0851764501
 H          6.6679181204       -0.2739671791        0.1715715902
 H          4.9706996803        0.0875920806        0.4600352201
 C          5.5687275306       -1.9158095293        0.9715695401
 H          5.8283118405       -1.6095623993        1.9881097301
 H          6.3151327407       -2.6423746492        0.6422961801
 C          4.2082707207       -2.6123016695        1.0145568800
 H          4.2444577508       -3.3488047096        1.8229815500
 H          4.0284777908       -3.1691567595        0.0986562299
 C          3.0255759506       -1.6971092497        1.3178493599
 H          2.1466209506       -2.3262919399        1.5096850399
 H          3.2156332104       -1.1673054797        2.2582749700
 H          5.6111570005        0.0108855508       -1.9300381798
 H          6.0341977107       -1.6973002092       -1.7741574699
 H          3.7420604307       -1.0786676095       -2.7912695900
 H          3.7466099308       -2.3545004595       -1.5834165400
 O          2.4001774704        0.4936383203       -1.7395054500
 C          1.4594702802        1.3924570701       -1.2695974100
 O          1.0614640202        2.2147922101       -2.1172353900
 O          1.2239532202        0.1633461300        2.1208596999
 C          0.0237343100        2.2469673598        0.6020069399
 C         -1.2940877699        2.0874440097       -0.1196292702
 C         -2.2207845901        3.1204666795       -0.2111075402
 C         -3.4321554500        2.9206533794       -0.8493418503
 C         -3.7562803398        1.6907928394       -1.3934632303
 C         -2.8378272996        0.6510393295       -1.3063042503
 C         -1.6230574897        0.8584257096       -0.6723168902
 H         -0.9091489496        0.0508765297       -0.6405329402
 N         -3.1169753694       -0.6085427905       -1.8523774404
 S         -2.4588511793       -1.9953458905       -1.2009075204
 O         -1.0586775192       -2.1009182202       -1.5308665603
 O         -3.3059573691       -3.0546967006       -1.7074505905
 C         -2.6812088994       -1.8377165906        0.5613300796
 C         -1.5868043394       -1.7091080404        1.3901798997
 C         -1.7874773396       -1.5358675405        2.7501248997
 C         -3.0769637196       -1.5033420907        3.2568192496
 C         -4.1687467795       -1.6499291208        2.4136709295
 C         -3.9724456094       -1.8139639808        1.0525459295
 H         -4.7958906794       -1.9360091509        0.3679182295
 H         -5.1700443895       -1.6301753510        2.8127131195
 H         -3.2300292297       -1.3645423808        4.3154369196
 H         -0.9295061596       -1.4078329804        3.3909632697
 H         -0.5941644494       -1.7319315203        0.9678774197
 H         -4.0592284994       -0.7422995207       -2.1862247804
 H         -4.7014339797        1.5372882692       -1.8907053904
 H         -4.1384159001        3.7337393493       -0.9196984803
 H         -1.9891805402        4.0842243496        0.2121535699
 H         -0.1324239500        1.9474961098        1.6504289399
 C          0.5363798698        3.6739607099        0.5760237700
 C          0.1795712296        4.6358688598        1.6688039400
 C          1.5708127297        4.0877804000        1.5785758101
 H          2.3682280396        4.7410389402        1.2576164401
 H          1.8779343297        3.3489004801        2.3044731601
 H          0.0222212594        5.6723565098        1.4106892300
 H         -0.4505919004        4.2765015397        2.4683001200
 H          0.6379238298        4.0577092700       -0.4328858800
