  62
        -98.94346227
 C          1.9500406006        0.7972667922        0.5257574282
 C          2.1596724861        0.1508879960       -0.7157394760
 C          2.4739951960       -1.2825933567       -0.6450900948
 C          2.4887325592       -1.8959324207        0.5522668305
 C          2.8325281967       -3.3403746985        0.7720473160
 C          4.3343955596       -3.5210955863        1.0343670150
 C          5.2275399822       -2.8115753501        0.0166324907
 H          5.0922731466       -1.7322796481        0.1171740992
 H          6.2632250718       -3.0327593883        0.2831506320
 C          4.9753926315       -3.2197635448       -1.4414635262
 H          4.4295230591       -4.1632434057       -1.4724577965
 H          5.9377558887       -3.3846446328       -1.9303178682
 C          4.2273736678       -2.1750163779       -2.2717091635
 H          4.7189157096       -1.2045498370       -2.1681831979
 H          4.2933158488       -2.4656636747       -3.3234328134
 C          2.7400232923       -1.9976956997       -1.9399777129
 H          2.2954742447       -1.3726566193       -2.7201849801
 H          2.2393294227       -2.9681250084       -1.9525144232
 H          4.5577931963       -4.5894672062        1.0364894370
 H          4.5615951084       -3.1236625907        2.0262918781
 H          2.2726312265       -3.6969070483        1.6384773904
 H          2.5318369276       -3.9151711271       -0.1017667751
 O          2.2380975525       -1.2502636256        1.7209953496
 C          1.9651702442        0.1072911986        1.7362388603
 O          1.7603518532        0.5792993205        2.8752987702
 H         -0.5582270341        0.7239158766        0.4328706033
 C         -0.6851283530        1.6236451102       -0.1526660074
 C          0.3489328779        2.5485113627       -0.2206081823
 C          0.1584391737        3.7025459498       -0.9702215661
 C         -1.0363673739        3.9141868664       -1.6364747266
 C         -2.0605085627        2.9885915421       -1.5699618669
 C         -1.8771410621        1.8260139798       -0.8274876755
 N         -2.8800419714        0.8438989383       -0.7852601897
 S         -2.9250841151       -0.2790935583        0.4661665288
 O         -2.8925732075        0.3897530860        1.7487536036
 O         -1.9129154850       -1.2803285097        0.2348671534
 C         -4.5407133376       -0.9795422834        0.1855653503
 C         -4.6925296606       -1.9107822571       -0.8245903688
 C         -5.9517713603       -2.4356238266       -1.0681006997
 C         -7.0324244045       -2.0227156971       -0.3026222445
 C         -6.8644592180       -1.0891865595        0.7088852967
 C         -5.6077513562       -0.5592407265        0.9567253180
 H         -5.4261895615        0.1626725876        1.7366456146
 H         -7.7052574078       -0.7725013117        1.3046036519
 H         -8.0111137066       -2.4334230197       -0.4939591807
 H         -6.0854352459       -3.1635866636       -1.8519026884
 H         -3.8216015927       -2.2064268653       -1.3862752145
 H         -3.7975662562        1.1927381522       -1.0243732024
 H         -2.9893773643        3.1536661023       -2.0937111944
 H         -1.1719822074        4.8153922847       -2.2148959138
 H          0.9460548965        4.4354966814       -1.0329545975
 C          1.6143520191        2.2756956077        0.5584670457
 H          1.4154664556        2.5182384109        1.6140926626
 C          2.7981660986        3.0944131874        0.0832963169
 C          3.0658573091        4.4508763320        0.6608105664
 C          3.9534747658        3.2971593709        1.0155600149
 H          4.9543873846        3.2692048144        0.6119083071
 H          3.8691311832        2.8695546078        2.0045840749
 H          2.3872594772        4.8156288392        1.4172403471
 H          3.4621868462        5.2180994516        0.0128625895
 H          3.0222180083        2.9268823495       -0.9638937201
 O          2.0908271410        0.7406961988       -1.8262587492
