  62
        -98.94339484
 C          1.8666658396        0.2690863391       -0.2198792212
 C          2.9680140094        0.4693103079       -1.0851868316
 C          4.2845410896        0.5577584284       -0.4401576220
 C          4.3669374498        0.4648950499        0.9000006781
 C          5.6477299600        0.4903820805        1.6819705878
 C          6.2053993698       -0.9256111193        1.8834742592
 C          6.2690510594       -1.7533517907        0.5998635001
 H          6.7044644893       -2.7211006905        0.8581161111
 H          5.2527326093       -1.9420768410        0.2467217705
 C          7.0859583493       -1.1110518721       -0.5299923907
 H          7.7360527495       -0.3356072018       -0.1231648717
 H          7.7297272391       -1.8733382727       -0.9739266900
 C          6.2452495492       -0.5226564932       -1.6645680512
 H          6.9126427090       -0.2953630142       -2.5001906416
 H          5.5271195890       -1.2688969535       -2.0137823902
 C          5.4790001894        0.7630237673       -1.3289067625
 H          5.0880557793        1.1707934163       -2.2659099528
 H          6.1622766796        1.4960575476       -0.8950017634
 H          7.2042616499       -0.8443659990        2.3160493289
 H          5.5669603299       -1.4504047084        2.5977823299
 H          5.4453567703        0.9339917216        2.6582659774
 H          6.3751361400        1.1070856699        1.1575399770
 O          3.2843324900        0.2901413909        1.7000131885
 C          2.0087543899        0.1799011606        1.1651603789
 O          1.1093356000        0.0119652116        2.0091832493
 O          2.8539415092        0.5751751266       -2.3368671817
 C          0.4773186294        0.1534946586       -0.8163800708
 C         -0.4432896403        1.2210978594       -0.2777011317
 C          0.0452065000        2.5076907495       -0.0653914432
 C         -0.7773604498        3.5066263402        0.4167551258
 C         -2.1130046998        3.2524286507        0.6738416264
 C         -2.6169760100        1.9785428105        0.4471259779
 C         -1.7824882003        0.9711537399       -0.0185364612
 H         -2.1945206105       -0.0101537203       -0.1856263600
 N         -3.9657419600        1.6856130810        0.6976563185
 S         -4.8223033904        0.7349071599       -0.3803632203
 O         -4.3475092606        0.9022069384       -1.7338689806
 O         -6.2095511803        1.0793045704       -0.1488620204
 C         -4.5564738805       -0.9387043195        0.1647418015
 C         -4.4841762409       -1.9428937405       -0.7801555175
 C         -4.3338390710       -3.2543365101       -0.3563461261
 C         -4.2589043508       -3.5368342186        0.9986989942
 C         -4.3341959004       -2.5165698876        1.9349085231
 C         -4.4893711603       -1.2041645780        1.5181370317
 H         -4.5484549200       -0.3883674973        2.2190138209
 H         -4.2720394702       -2.7395763265        2.9879436034
 H         -4.1393163409       -4.5574334883        1.3266944453
 H         -4.2744033613       -4.0484401209       -1.0838221352
 H         -4.5344062011       -1.6777113617       -1.8241934877
 H         -4.5165665398        2.4665985414        1.0233644577
 H         -2.7589542296        4.0331479612        1.0461344557
 H         -0.3783468496        4.4956070603        0.5860110647
 H          1.0854930600        2.7143277791       -0.2772951937
 H          0.6055485993        0.3353585774       -1.8949018010
 C         -0.0554370807       -1.2516638011       -0.6215641291
 C         -0.9689502310       -1.8707185320       -1.6354705483
 C          0.4477220989       -2.3435787021       -1.5160370080
 H          0.6331118888       -3.3173409417       -1.0884904470
 H          1.1483741088       -2.0648340631       -2.2897468285
 H         -1.7561646311       -2.5212794715       -1.2853256474
 H         -1.2388307611       -1.2765436829       -2.4959496989
 H         -0.2134504806       -1.4919656199        0.4240420612
