  62
        -98.94062831
 C         -0.6220200793       -1.4324112892        0.5874726408
 C         -1.1159688493       -0.7304067903       -0.5370781500
 C         -2.2005993197        0.2246722495       -0.2648475310
 C         -2.5539622401        0.4837639105        1.0063209786
 C         -3.6172912206        1.4461080405        1.4658654576
 C         -5.0660728503        1.0703311296        1.0962545876
 C         -5.5718980203        1.7059356883       -0.2048315031
 H         -6.6106150204        2.0113562280       -0.0631203336
 H         -5.0021865306        2.6160188883       -0.3956970038
 C         -5.5369314197        0.8093710172       -1.4464571823
 H         -6.3763023994        0.1115036169       -1.4049575919
 H         -5.6832759997        1.4463883764       -2.3212832229
 C         -4.2645354393       -0.0159949025       -1.6419997813
 H         -4.2655897292       -0.8612995419       -0.9495385405
 H         -4.2862053189       -0.4414241434       -2.6471147709
 C         -2.9529935697        0.7698207082       -1.4433296817
 H         -2.3034012494        0.6416306976       -2.3107207114
 H         -3.1615378701        1.8295776382       -1.3160217527
 H         -5.1597427299       -0.0145757305        1.0534978785
 H         -5.7007649507        1.4164605901        1.9136872871
 H         -3.5252255308        1.4853235415        2.5532282775
 H         -3.3941449209        2.4415529002        1.0766624967
 O         -1.9391750201       -0.1052289583        2.0711169593
 C         -1.0118870797       -1.1176556082        1.8881505904
 O         -0.6089603297       -1.6462318171        2.9456254010
 O         -0.6936055190       -0.9049051212       -1.7083208497
 C          0.3556497812       -2.5769642390        0.3965445420
 C          1.6180011112       -2.1032226991       -0.2789244281
 C          2.2022226416       -2.7596292098       -1.3546690874
 C          3.3799928116       -2.2871329599       -1.9067792276
 C          3.9977134710       -1.1589053892       -1.4005461084
 C          3.4246960006       -0.5002050784       -0.3178290891
 C          2.2445229606       -0.9732494384        0.2322715810
 H          1.8111487702       -0.4620309978        1.0804691705
 N          4.0385402000        0.6341887023        0.2333769300
 S          3.1311273994        1.8436210025        0.9252743987
 O          4.0154503190        2.9915567029        0.9245727779
 O          2.6452234093        1.4389083435        2.2214224590
 C          1.7633676895        2.1773696711       -0.1704061119
 C          1.9421096498        2.1222336899       -1.5380153418
 C          0.8925096499        2.4839443588       -2.3662535524
 C         -0.3044986904        2.9145575388       -1.8183264930
 C         -0.4681112207        2.9647202100       -0.4436698631
 C          0.5709824492        2.5862362711        0.3896746775
 H          0.4782449990        2.5950162220        1.4648366175
 H         -1.3974081609        3.3006457400       -0.0130855736
 H         -1.1145099004        3.2099807079       -2.4658860334
 H          1.0132374302        2.4318889579       -3.4361158223
 H          2.8849428901        1.7975207799       -1.9463287213
 H          4.8343013300        0.9916019521       -0.2740084201
 H          4.9172502310       -0.7916482592       -1.8298380685
 H          3.8217480920       -2.8037353204       -2.7450643670
 H          1.7355013221       -3.6406022704       -1.7626459767
 H          0.6265859011       -2.9141997080        1.4084082824
 C         -0.3314672582       -3.7156335599       -0.3303038271
 C          0.0921092622       -5.1324109095       -0.0895158758
 C         -1.2165641881       -4.6395370495        0.4489728535
 H         -2.1295858178       -4.9892513203       -0.0091230964
 H         -1.3018290184       -4.4639112186        1.5119617233
 H          0.0743523027       -5.8251836902       -0.9172581652
 H          0.8953488622       -5.3016826786        0.6116255246
 H         -0.6549297681       -3.4378558409       -1.3268421874
