  62
        -98.94044570
 C          0.4015356037       -2.0761779258       -0.1327053391
 C         -0.6384180690       -2.1259741259        0.8243667979
 C         -1.9731949154       -1.6816189815        0.3806494411
 C         -2.1411670176       -1.3122965486       -0.9015430045
 C         -3.3820546567       -0.7724908984       -1.5623549155
 C         -4.0463395863        0.3998274479       -0.8211853451
 C         -5.4154889740        0.0422189344       -0.2432961579
 H         -5.9867471661        0.9619870818       -0.0999864133
 H         -5.9539826096       -0.5681841983       -0.9711171760
 C         -5.3721577133       -0.6872831421        1.0980204172
 H         -5.0480984360        0.0097752818        1.8745382456
 H         -6.3927708104       -0.9929121825        1.3408200896
 C         -4.4669953787       -1.9211729432        1.1554001396
 H         -4.8399301562       -2.5633256801        1.9565311365
 H         -4.5342238577       -2.4948511877        0.2324817230
 C         -3.0001721557       -1.6053100141        1.4772681907
 H         -2.6380462883       -2.3050929742        2.2382027714
 H         -2.9191536046       -0.6120956614        1.9352461071
 H         -3.3858728315        0.7585433526       -0.0301213118
 H         -4.1755232101        1.2211446842       -1.5277874879
 H         -4.1000916559       -1.5827933191       -1.6993066459
 H         -3.0680152823       -0.4549011018       -2.5584039095
 O         -1.1312629295       -1.3792502424       -1.8154888782
 C          0.1701196133       -1.6904677497       -1.4512961118
 O          0.9958154512       -1.5904207874       -2.3769967770
 O         -0.4550505001       -2.5087331097        2.0124546524
 C          1.8271340765       -2.3310881013        0.3252765867
 C          2.5653728997       -1.0133941667        0.2847649070
 C          3.7374285210       -0.8022968079       -0.4282268430
 C          4.3281266945        0.4501031666       -0.4448050601
 C          3.7619134975        1.5119827893        0.2356086772
 C          2.5931333235        1.3092677979        0.9625667989
 C          2.0147619327        0.0511507569        0.9909647185
 H          1.1115736347       -0.0987504212        1.5651753285
 N          2.0007689010        2.3638727022        1.6825351015
 S          0.3700243187        2.6915324204        1.5097927766
 O          0.1925859966        3.9732816682        2.1569307366
 O         -0.4223228691        1.6033226363        2.0211474909
 C          0.1251748692        2.8651697777       -0.2455543480
 C          0.2901465581        4.1035683407       -0.8346561760
 C          0.1582885795        4.2114822679       -2.2095493933
 C         -0.1202109436        3.0841403876       -2.9684488577
 C         -0.2800253156        1.8478347826       -2.3619032332
 C         -0.1586970461        1.7372155767       -0.9864851642
 H         -0.2804559891        0.7934289451       -0.4785723166
 H         -0.4835019985        0.9620566398       -2.9433051796
 H         -0.2148728745        3.1663825718       -4.0397200372
 H          0.2772645595        5.1709804672       -2.6865261794
 H          0.5014465454        4.9534701577       -0.2060533462
 H          2.5257990445        3.2265162667        1.6491821614
 H          4.2193759644        2.4893513185        0.2121004270
 H          5.2375191410        0.6028140601       -1.0055855483
 H          4.1846275231       -1.6149195705       -0.9761202031
 H          1.7435765094       -2.6396946304        1.3778292908
 C          2.4895634158       -3.4412270318       -0.4588801154
 C          3.6354050263       -4.1966606412        0.1433223975
 C          2.2997361228       -4.8580304668       -0.0097278482
 H          2.1848912910       -5.6251333137       -0.7606634722
 H          1.7046282284       -5.0236125749        0.8767414689
 H          4.4403736512       -4.5144659623       -0.5017110913
 H          3.9504435123       -3.9163595956        1.1371794599
 H          2.5009899078       -3.2546723371       -1.5260543465
