  62
        -98.94312165
 C          2.0306064999        1.1020339603        0.2138264119
 C          2.6635696196        0.2605026996        1.1662379115
 C          4.0725340797       -0.0590374402        0.9198581518
 C          4.6908306201        0.4526300906       -0.1598825876
 C          6.1349123102        0.2542547609       -0.5328105972
 C          6.4111185205       -1.0446399186       -1.3020124581
 C          6.3318043502       -2.3233710892       -0.4672802891
 H          6.7565654504       -3.1275228287       -1.0714490895
 H          6.9581374999       -2.2171181799        0.4190668712
 C          4.9082928600       -2.7190039595       -0.0503398499
 H          4.7585542801       -3.7857736994       -0.2318966008
 H          4.1844551503       -2.1858091690       -0.6713402898
 C          4.5825738495       -2.4604485206        1.4208481502
 H          3.5405162094       -2.7415624608        1.5943924996
 H          5.2111570693       -3.0928854611        2.0518243199
 C          4.7601511193       -1.0013518709        1.8609632613
 H          4.3020285490       -0.8819852517        2.8458891513
 H          5.8198430893       -0.7580390510        1.9364011319
 H          7.4187989006       -0.9691950882       -1.7171345377
 H          5.7113944108       -1.1116167379       -2.1383095884
 H          6.4088951504        1.0967704813       -1.1714472465
 H          6.7520185099        0.2841880002        0.3657155630
 O          4.0526462104        1.2533614112       -1.0504568772
 C          2.7095872803        1.5779340011       -0.9085172875
 O          2.2737949207        2.2888167318       -1.8342285571
 H         -0.9741049305       -0.5660147806        1.3752317796
 C         -1.0778577001       -0.4411877798        0.3055730896
 C         -0.3341604099        0.5366155207       -0.3396735594
 C         -0.4631280094        0.6723744117       -1.7177189193
 C         -1.3158111791       -0.1554460678       -2.4257109502
 C         -2.0613198993       -1.1253540383       -1.7781168812
 C         -1.9367937998       -1.2699223193       -0.4033107413
 N         -2.7208607801       -2.2341404498        0.2634033177
 S         -4.3798308000       -2.0544369297        0.0804158372
 O         -4.9691889504       -2.7062085405        1.2281029865
 O         -4.7747859695       -2.5595826087       -1.2096043433
 C         -4.6312795501       -0.2900250597        0.1536539285
 C         -4.5289709105        0.3303416794        1.3832063390
 C         -4.6296683605        1.7102694593        1.4484812300
 C         -4.8196184701        2.4433802602        0.2869296904
 C         -4.9228626997        1.8055882411       -0.9390923501
 C         -4.8262289796        0.4250473611       -1.0102803711
 H         -4.9025675893       -0.1086240182       -1.9430683615
 H         -5.0716517393        2.3785523418       -1.8399718297
 H         -4.8880535001        3.5183961301        0.3397231512
 H         -4.5539562209        2.2099515686        2.4011598104
 H         -4.3861144108       -0.2736375413        2.2652060686
 H         -2.4887631504       -2.3274935105        1.2422393877
 H         -2.7389162391       -1.7709285279       -2.3134302820
 H         -1.4034138887       -0.0427737970       -3.4956752102
 H          0.1252133008        1.4188274121       -2.2280878785
 C          0.5705625898        1.4362109401        0.4677047616
 H          0.4092874794        1.1987199693        1.5280034914
 C          0.2231600799        2.8952739602        0.2468574726
 C         -1.0729256103        3.4119832498        0.7940380125
 C          0.2245766395        3.8344284094        1.4136297833
 H          0.5673743395        4.8463611895        1.2583192942
 H          0.4847962691        3.4308996886        2.3814466131
 H         -1.6965733705        2.7174883594        1.3368738718
 H         -1.6238011701        4.1338911703        0.2119180129
 H          0.5606260502        3.2828765510       -0.7047084470
 O          2.0757967592       -0.1924321512        2.1854424510
