  62
        -98.93763866
 C          2.3866680093        1.0853300705        0.0313606838
 C          3.3919123756        0.6369452383        0.9272051061
 C          4.4508575607       -0.2275184531        0.3794243320
 C          4.4149196385       -0.5619145573       -0.9236376113
 C          5.3624875957       -1.3801153916       -1.7760001457
 C          6.4768206591       -2.2013977911       -1.1336215836
 C          5.9953828316       -3.4132613729       -0.3355071628
 H          6.8546626165       -3.8492080131        0.1784513451
 H          5.6141465017       -4.1594231171       -1.0372644901
 C          4.8928908140       -3.1370048254        0.6837094372
 H          4.6227300566       -4.0883454669        1.1499876271
 H          4.0028634140       -2.7666012993        0.1708896180
 C          5.2634716461       -2.1629817273        1.7997806473
 H          6.1648146368       -2.5114502453        2.3078308029
 H          4.4465123258       -2.1674433294        2.5263862600
 C          5.4832922533       -0.7064133162        1.3595326608
 H          6.4855689185       -0.5611611157        0.9637664279
 H          5.3840772442       -0.0687366015        2.2427905216
 H          7.1074336370       -1.5633884331       -0.5214999491
 H          7.1016227539       -2.5722617278       -1.9506873586
 H          5.8148729862       -0.6688662322       -2.4759335440
 H          4.7304469482       -2.0411578599       -2.3777620364
 O          3.4231342099       -0.1148441538       -1.7468606086
 C          2.3983160226        0.7075798357       -1.3095382564
 O          1.5925429592        1.0092976999       -2.2144880188
 O          3.4145144446        0.9641766902        2.1434822499
 C          1.3294953980        2.0136868738        0.6044343980
 C          0.0200580949        1.3102780229        0.8728406644
 C         -0.4869012860        1.2228619346        2.1642157337
 C         -1.7069533648        0.6149424278        2.4034427529
 C         -2.4444926335        0.0806097427        1.3623144883
 C         -1.9442807742        0.1572986147        0.0690415093
 C         -0.7233681078        0.7719230776       -0.1680886680
 H         -0.3380946470        0.8254573876       -1.1758258344
 N         -2.6796405712       -0.4004738407       -0.9951789055
 S         -4.2457800627        0.1678755478       -1.2208119976
 O         -4.5488393440       -0.0832649082       -2.6128758617
 O         -4.3821614250        1.5340283607       -0.7697602674
 C         -5.2422194455       -0.9068046965       -0.2092031479
 C         -5.1897736644       -2.2653572412       -0.4529065301
 C         -5.9668457248       -3.1137990571        0.3194582592
 C         -6.7811282888       -2.5922148997        1.3139652182
 C         -6.8251765764       -1.2256173830        1.5437024939
 C         -6.0490905666       -0.3714076307        0.7756730059
 H         -6.0458210747        0.6969997681        0.9210970836
 H         -7.4590422424       -0.8221349370        2.3168933685
 H         -7.3852297268       -3.2550926967        1.9131206626
 H         -5.9352857215       -4.1770688311        0.1438238402
 H         -4.5472947389       -2.6283642546       -1.2378039080
 H         -2.1763724010       -0.3792594399       -1.8714022229
 H         -3.3951845913       -0.3944344918        1.5417805358
 H         -2.0879473048        0.5559142487        3.4114788912
 H          0.0872565426        1.6299763162        2.9837793157
 H          1.7352776672        2.3390878255        1.5718174772
 C          1.0974999197        3.2435884994       -0.2534959000
 C          0.5042425951        4.4672539712        0.3747824422
 C          1.9444943096        4.4603216145       -0.0400940205
 H          2.2387839029        5.0399721523       -0.9021515132
 H          2.6974584143        4.4149179480        0.7331895515
 H         -0.1967523770        5.0522059132       -0.2007966026
 H          0.2807251836        4.4284528771        1.4300978537
 H          0.8102787919        3.0113854821       -1.2711599429
