  62
        -98.94542433
 C         -2.3313072422       -0.9208970859        0.1645224619
 C         -1.8175404226       -0.0097075144       -0.7905669032
 C         -2.3135825239        1.3708237003       -0.6841388776
 C         -3.2028354792        1.6817804895        0.2767869319
 C         -3.7520121821        3.0564077042        0.5253331665
 C         -2.8947844936        3.8212983402        1.5434737270
 C         -1.3977643073        3.7903259375        1.2345306764
 H         -0.8948400688        4.3853312717        2.0000830375
 H         -1.0338108986        2.7648669087        1.3352919198
 C         -1.0274026845        4.3235259285       -0.1563154185
 H         -1.8487188596        4.9213449515       -0.5528737473
 H         -0.1637544659        4.9841300094       -0.0574282816
 C         -0.6486026507        3.2423941792       -1.1701315637
 H          0.1132615518        2.5868696528       -0.7405411128
 H         -0.2043642621        3.7342455954       -2.0386823960
 C         -1.7992575148        2.3683641468       -1.6834239860
 H         -2.6106294301        3.0016072459       -2.0478020885
 H         -1.4168247787        1.7791146229       -2.5217396846
 H         -3.2396128621        4.8562870070        1.5776944650
 H         -3.0513079799        3.3790843886        2.5303232524
 H         -3.7913652055        3.6020598152       -0.4152813164
 H         -4.7647450662        2.9558562659        0.9194185632
 O         -3.6714277393        0.7780813588        1.1759309828
 C         -3.2450932368       -0.5401730843        1.1461450820
 O         -3.7401178494       -1.2623583845        2.0362246917
 H         -0.1592950356       -0.8342504951        1.4582393699
 C          0.3453591341       -1.6327697374        0.9277330268
 C         -0.4058061259       -2.5235638014        0.1721449404
 C          0.2585145586       -3.5466678714       -0.4935884849
 C          1.6340802814       -3.6683714262       -0.4019772776
 C          2.3782674375       -2.7742055637        0.3449224627
 C          1.7265463077       -1.7392545902        1.0051080769
 N          2.4631610003       -0.8195667933        1.7733010947
 S          3.8290099438       -0.0758560010        1.1588404001
 O          4.8286010308       -1.0777785053        0.8861092593
 O          4.1776580952        0.9233423659        2.1428498667
 C          3.3430501750        0.7229096077       -0.3599820483
 C          3.1446772031        2.0893169866       -0.3529997723
 C          2.7628347185        2.7183011280       -1.5267274704
 C          2.5685246100        1.9706156310       -2.6778784214
 C          2.7640623445        0.5987961165       -2.6666924895
 C          3.1618152773       -0.0345128341       -1.5002917686
 H          3.3332894945       -1.0973577008       -1.4642472763
 H          2.6056489594        0.0175375238       -3.5605453761
 H          2.2617826563        2.4590776193       -3.5892645519
 H          2.6134502932        3.7860438788       -1.5381037727
 H          3.3036631383        2.6314279534        0.5655036321
 H          1.8892561147       -0.1389327362        2.2488556133
 H          3.4504307402       -2.8558536184        0.4226323121
 H          2.1351495103       -4.4723871684       -0.9195138507
 H         -0.3026104134       -4.2520089438       -1.0841936583
 C         -1.9076827310       -2.3762650980        0.1243505391
 H         -2.3228922238       -2.8404961889        1.0317901740
 C         -2.5250625636       -3.0473492420       -1.0883073470
 C         -2.9703910561       -4.4768276102       -1.0284861363
 C         -3.9865305508       -3.3762942257       -1.0625147997
 H         -4.5652052486       -3.2317508739       -1.9624880768
 H         -4.5274160893       -3.1485617861       -0.1551077649
 H         -2.8545809684       -5.0908236065       -1.9091033103
 H         -2.8334348659       -5.0071432016       -0.0980403277
 H         -2.1125114419       -2.6767320524       -2.0198343598
 O         -0.9892151936       -0.3290203818       -1.6813507541
