  62
        -98.93506367
 C         -2.0443141389       -0.6984282324       -0.4075812330
 C         -3.1826876929       -1.2266495238        0.2500271588
 C         -4.4527995459       -0.4887382048        0.1090459666
 C         -4.4592373121        0.6507479194       -0.6065667370
 C         -5.6095848189        1.5894389020       -0.8558910240
 C         -5.9333507123        2.4667760998        0.3642724286
 C         -5.9403370373        1.7312428089        1.7018540353
 H         -4.9670055915        1.2623442758        1.8577724414
 H         -6.0695246350        2.4777808198        2.4900247060
 C         -7.0410428815        0.6855791581        1.8642816299
 H         -8.0136814847        1.1687439189        1.7472625592
 H         -6.9798526813        0.3069021565        2.8878038947
 C         -6.9748873825       -0.5098987284        0.9116107779
 H         -7.3373103362       -0.2436024057       -0.0777026631
 H         -7.6591371711       -1.2712413136        1.2976172939
 C         -5.6030898649       -1.1694454702        0.8111345488
 H         -5.2438017191       -1.4050676279        1.8193615909
 H         -5.7195688567       -2.1403118263        0.3140531695
 H         -6.9029433528        2.9403557523        0.2010814889
 H         -5.1784271808        3.2548357538        0.4223792607
 H         -6.4845412414        1.0310445168       -1.1755012527
 H         -5.3102135424        2.2395818021       -1.6810631185
 O         -3.3328760978        1.1413550244       -1.1954739910
 C         -2.1063274114        0.5005931967       -1.1186386436
 O         -1.1918951164        1.0963452557       -1.7173978395
 O         -3.1451180035       -2.2801547269        0.9410625862
 C         -0.7368760334       -1.4560551881       -0.2529977905
 C          0.3565829419       -0.5118928685        0.1748053038
 C          0.3691568990       -0.0419423330        1.4849290702
 C          1.3348559998        0.8521226472        1.9070522182
 C          2.3092756725        1.2968575552        1.0311668793
 C          2.3065466589        0.8319366488       -0.2772154765
 C          1.3435187058       -0.0774492985       -0.6955111877
 H          1.3392387222       -0.4130808155       -1.7206165040
 N          3.2914937372        1.2798908446       -1.1701789343
 S          4.8708921855        1.3845486678       -0.6409570254
 O          5.0609857173        2.6020603376        0.1081545863
 O          5.6803245823        1.2447461703       -1.8313942945
 C          5.0923820733       -0.0231215864        0.4339503770
 C          5.4232816210        0.1662849114        1.7599619900
 C          5.5579601693       -0.9409072004        2.5825555910
 C          5.3559845282       -2.2117609594        2.0678872000
 C          5.0276522457       -2.3862720434        0.7319533442
 C          4.8938556587       -1.2832506910       -0.0950809041
 H          4.6457470235       -1.3851062760       -1.1393034511
 H          4.8724673500       -3.3762326365        0.3339263817
 H          5.4556273663       -3.0724558632        2.7102321555
 H          5.8158230290       -0.8082177887        3.6209086584
 H          5.5680490863        1.1720209162        2.1196414780
 H          3.2198463203        0.8953495755       -2.0996545870
 H          3.0567856688        2.0115794384        1.3351533358
 H          1.3277585904        1.2116304041        2.9248373116
 H         -0.3988454682       -0.3793234454        2.1673987904
 H         -0.9285829987       -2.1536694503        0.5784809855
 C         -0.3547546805       -2.3119843767       -1.4512436325
 C         -1.4085920653       -3.0008404726       -2.2642948114
 C         -0.5994585709       -1.8949410198       -2.8694655015
 H          0.1417225763       -2.1533030153       -3.6124160471
 H         -1.0735497377       -0.9416892591       -3.0426024919
 H         -1.2281742454       -4.0130327608       -2.5934405326
 H         -2.4401229945       -2.7993223155       -2.0143844112
 H          0.5537509859       -2.8767422843       -1.2639056942
