  62
        -98.93222739
 C          2.1872301302        1.1104881993       -0.3526220497
 C          2.8607397900        0.5319646190        0.7519527402
 C          3.3255598799       -0.8578754710        0.6093156300
 C          3.0820412100       -1.5155089307       -0.5393036202
 C          3.3673496999       -2.9434104106       -0.9559356404
 C          4.3008023398       -3.8248715309       -0.1309429005
 C          5.7695328598       -3.4028439810       -0.1631045503
 H          6.1645915499       -3.6014906308       -1.1624722103
 H          6.3204615297       -4.0274003812        0.5431864196
 C          6.0396560999       -1.9344653611        0.1547651400
 H          5.5597486600       -1.3027148509       -0.5953338699
 H          7.1172718199       -1.7679911412        0.0754987002
 C          5.6007803398       -1.4749357214        1.5434809301
 H          5.9880827399       -0.4637222214        1.6938923403
 H          6.0469384997       -2.1201624415        2.3026549300
 C          4.0809632798       -1.4260369213        1.7763661799
 H          3.8886233798       -0.7551799914        2.6189165101
 H          3.6892776997       -2.4043314813        2.0459652597
 H          4.2362716597       -4.8300612408       -0.5563383408
 H          3.9430163897       -3.8937507011        0.8922263994
 H          3.7407891000       -2.8873897505       -1.9835488004
 H          2.3870206699       -3.4306065806       -1.0104554306
 O          2.4258725302       -0.9206169204       -1.5764690701
 C          1.9514893203        0.3820726096       -1.5169700199
 O          1.3586768704        0.7398589098       -2.5527116999
 O          3.0626171400        1.1582509888        1.8273554404
 C          1.6768446803        2.5299892793       -0.1704770495
 C          0.2796233902        2.4904877593        0.3953822504
 C         -0.0634121698        3.2006854491        1.5390066205
 C         -1.3351965899        3.0999744791        2.0779116004
 C         -2.2874935799        2.2853832193        1.4917753001
 C         -1.9538582098        1.5760301295        0.3467312200
 C         -0.6848440698        1.6864321795       -0.1972565299
 H         -0.4349085597        1.1246158297       -1.0863455200
 N         -2.9147055798        0.7089766097       -0.2391501003
 S         -3.0395672200       -0.7728688404        0.5740266194
 O         -3.0667752702       -0.5163905607        1.9910025794
 O         -2.0131684301       -1.6808351704        0.1014387693
 C         -4.6412312600       -1.3295128902        0.0267826891
 C         -5.7629178401       -0.8310601102        0.6605523191
 C         -7.0143102500       -1.2287631900        0.2184585589
 C         -7.1223833700       -2.1112863498       -0.8461346013
 C         -5.9871434000       -2.6028709398       -1.4722438013
 C         -4.7323645500       -2.2081676000       -1.0348190811
 H         -3.8228298000       -2.5715132899       -1.4861295111
 H         -6.0733500100       -3.2903892996       -2.2983196914
 H         -8.0972131400       -2.4201071197       -1.1890140714
 H         -7.8993618101       -0.8504202801        0.7039226389
 H         -5.6289279201       -0.1548313104        1.4883752193
 H         -2.6609977098        0.4924016299       -1.1959140903
 H         -3.2712503299        2.1752068193        1.9165246700
 H         -1.5832344799        3.6535253689        2.9706547304
 H          0.6825756902        3.8157306490        2.0208741207
 H          2.3312617103        2.9688860691        0.5991817307
 C          1.7990487105        3.3902073296       -1.4194572593
 C          0.6235937906        3.8667397598       -2.2138516093
 C          1.3952960806        4.8343896196       -1.3711546990
 H          2.0228904707        5.5641621097       -1.8593358188
 H          0.9273796505        5.1864416095       -0.4641543990
 H          0.7306948307        3.9055787901       -3.2870425393
 H         -0.3640593694        3.5812979399       -1.8873449194
 H          2.6933887805        3.1526098596       -1.9862878992
