  62
        -98.94276098
 C         -2.6640429743       -0.6421878795        0.0457034794
 C         -3.0529376386        0.3875643862        0.9340705879
 C         -3.1627130313        1.7318115928        0.3531945695
 C         -2.8850390987        1.9086692428       -0.9516919927
 C         -2.8988946901        3.2324690593       -1.6584761754
 C         -1.5142811122        3.8944107746       -1.6259111421
 C         -0.8811878257        3.9418531069       -0.2352726888
 H         -0.6430198694        2.9228750993        0.0808727161
 H          0.0723376783        4.4655788305       -0.3328702799
 C         -1.7411622633        4.6307142429        0.8338107390
 H         -1.1026608669        5.2966300801        1.4179739589
 H         -2.5012002388        5.2481648585        0.3538557496
 C         -2.4134714385        3.6774137636        1.8235108531
 H         -2.8024489909        4.2702344261        2.6556003150
 H         -1.6676297671        2.9901557568        2.2315148514
 C         -3.5791017538        2.8495703455        1.2677544324
 H         -4.2939266594        3.5078627528        0.7704856231
 H         -4.0807565615        2.3721864158        2.1146054589
 H         -1.6073683410        4.9080932477       -2.0203935260
 H         -0.8436318088        3.3328743822       -2.2811229344
 H         -3.1853615550        3.0634030455       -2.6978651803
 H         -3.6349252295        3.8822189993       -1.1887777661
 O         -2.5136557265        0.8949995110       -1.7752017189
 C         -2.3720598224       -0.3990923292       -1.2968948483
 O         -1.9975651180       -1.2251194159       -2.1508337648
 O         -3.2877583433        0.1926571587        2.1580718512
 C         -2.4797101424       -2.0506762667        0.5835631653
 C         -1.0417338708       -2.4651739271        0.3886559242
 C         -0.6514438670       -3.6765491199       -0.1657532573
 C          0.6893604310       -3.9562401676       -0.3715588450
 C          1.6671177065       -3.0406171689       -0.0291055048
 C          1.2874911817       -1.8360798021        0.5450411014
 C         -0.0520556158       -1.5626548655        0.7587997744
 H         -0.3395972539       -0.6124038456        1.1948936976
 N          2.2839610545       -0.8804267881        0.8741463668
 S          2.8279464789        0.0236883077       -0.4530990000
 O          2.1203563019        1.2876411359       -0.4825817800
 O          2.7641099856       -0.7899601799       -1.6395711367
 C          4.5300607497        0.2996921889       -0.0018727997
 C          4.8997473433        1.4866824716        0.5989911288
 C          6.2213684858        1.6620154682        0.9791219368
 C          7.1436809786        0.6509494851        0.7573838640
 C          6.7567060684       -0.5361014176        0.1531138261
 C          5.4375143235       -0.7164089205       -0.2295910272
 H          5.0919191454       -1.6164043987       -0.7107550786
 H          7.4767694771       -1.3195811455       -0.0199651314
 H          8.1710361505        0.7896894128        1.0549187356
 H          6.5253980051        2.5847540913        1.4466056114
 H          4.1510366626        2.2485089901        0.7448345493
 H          1.9419188197       -0.2159109885        1.5569267696
 H          2.7107441656       -3.2363972674       -0.2115985580
 H          0.9738786368       -4.8976679406       -0.8164405060
 H         -1.3992384517       -4.3964205286       -0.4557921820
 H         -2.6786581668       -1.9815344494        1.6635843922
 C         -3.4788306803       -3.0024025926       -0.0377598517
 C         -3.9308077833       -4.2175226165        0.7144164660
 C         -4.8664674047       -3.0628797035        0.5244120018
 H         -5.6943912187       -3.1735903355       -0.1594840490
 H         -5.0839851440       -2.4325236124        1.3742614839
 H         -4.1201377218       -5.1249522238        0.1612849647
 H         -3.5177939199       -4.3775724028        1.6987672097
 H         -3.3704122956       -3.0728145764       -1.1142868789
