  62
        -98.94092327
 C         -2.2811003464       -0.5282984760        0.1299316204
 C         -3.5519747481       -1.0539308663        0.4650357700
 C         -4.6345492385       -0.0726703401        0.6132594609
 C         -4.3623379912        1.2350380452        0.4496502498
 C         -5.3799694784        2.3361982409        0.5159809561
 C         -5.9744013066        2.6267399985       -0.8693176837
 C         -6.4510446894        1.3781137107       -1.6114957482
 H         -5.5867166809        0.7537928824       -1.8496706441
 H         -6.8796348218        1.7079881026       -2.5603422484
 C         -7.4855206858        0.5409063491       -0.8463665354
 H         -8.2868229752        0.2614806140       -1.5335493708
 H         -7.9333783061        1.1403161524       -0.0530210530
 C         -6.9357365304       -0.7570463889       -0.2521279374
 H         -6.4035985951       -1.3170996672       -1.0251678404
 H         -7.7823007117       -1.3685537638        0.0710841396
 C         -6.0019925536       -0.5953717743        0.9539750612
 H         -5.8432466163       -1.5876295257        1.3861997769
 H         -6.4786744967        0.0354304390        1.7068787595
 H         -5.2099343111        3.1157289985       -1.4777092180
 H         -6.8078639445        3.3210563566       -0.7482555215
 H         -6.1693609920        2.0533014376        1.2095799328
 H         -4.8874809836        3.2368277825        0.8863478466
 O         -3.1222290224        1.7047140394        0.1555755053
 C         -2.0520167192        0.8391374415       -0.0190071742
 O         -0.9754400266        1.4038415324       -0.2942980432
 H          1.5581518731       -0.9703611973       -0.5546358632
 C          1.2942206085       -0.9146360265        0.4871005627
 C         -0.0082907961       -1.1462324305        0.8989406814
 C         -0.3049790496       -1.0668949709        2.2577969478
 C          0.6737030195       -0.7420767075        3.1756992964
 C          1.9672807722       -0.4833109896        2.7570240590
 C          2.2778919249       -0.5722532583        1.4057997006
 N          3.6015673667       -0.3637132239        0.9701249718
 S          3.9091540994        0.5622706224       -0.4087494015
 O          3.4418880959        1.9185871355       -0.2211940219
 O          3.4258414333       -0.1350384966       -1.5721630230
 C          5.6929079048        0.5246611635       -0.3924702108
 C          6.4016292011        1.6376705510        0.0169870086
 C          7.7865038864        1.5788698514        0.0429767776
 C          8.4348957079        0.4133550745       -0.3360120733
 C          7.7096405169       -0.6960683785       -0.7453581744
 C          6.3254092035       -0.6431309924       -0.7751244914
 H          5.7206678846       -1.4760605966       -1.0933543650
 H          8.2175442982       -1.5997425945       -1.0414379598
 H          9.5123698542        0.3698262698       -0.3146416782
 H          8.3526412296        2.4407701786        0.3576443767
 H          5.8543784228        2.5238170995        0.2962204445
 H          4.1913619894       -0.0299264512        1.7224132864
 H          2.7304295141       -0.2162257951        3.4726977992
 H          0.4278636090       -0.6796892792        4.2252899797
 H         -1.3198370890       -1.2558705977        2.5813824023
 C         -1.1192582860       -1.4859595665       -0.0629308516
 H         -1.5119980957       -2.4793071428        0.2017021622
 C         -0.6860996516       -1.5050556601       -1.5131763705
 C         -0.0311807854       -2.7240809355       -2.0879421389
 C         -1.4311385271       -2.3673880326       -2.4858084690
 H         -1.6062494859       -1.9882046906       -3.4815190239
 H         -2.2419379579       -2.9656370370       -2.0961443319
 H          0.1090287234       -3.5699736873       -1.4320997433
 H          0.7617439944       -2.5869383035       -2.8077415468
 H         -0.3494767028       -0.5340522226       -1.8620495426
 O         -3.7682606641       -2.2836826208        0.6367771634
