  62
        -98.94481770
 C         -1.9863617005       -1.0991360896       -0.2893088794
 C         -3.0885283404       -1.1875433594        0.6032335106
 C         -4.3222877005       -0.5150922797        0.1861930104
 C         -4.3646588106        0.1215267999       -0.9978168898
 C         -5.5525833607        0.8402651395       -1.5770126401
 C         -5.7176975109        2.2794324697       -1.0695896906
 C         -6.2027780409        2.4085315201        0.3750052894
 H         -6.4856209510        3.4523344902        0.5253394090
 H         -7.1010644608        1.8054305701        0.5107576396
 C         -5.1573876608        2.0243671407        1.4316424195
 H         -4.1640326708        2.0161614806        0.9764412595
 H         -5.1401939109        2.7816023410        2.2187862992
 C         -5.4035013906        0.6750014009        2.1068454800
 H         -6.3320710406        0.7162571010        2.6804795700
 H         -4.5836891206        0.4878204912        2.8050052800
 C         -5.4805981105       -0.5113860795        1.1372432704
 H         -6.4224359705       -0.4891882998        0.5894268805
 H         -5.4352093304       -1.4343785393        1.7203889508
 H         -6.4441880710        2.7726412493       -1.7195720607
 H         -4.7643727410        2.8014086797       -1.1815532208
 H         -5.4010766208        0.8716168391       -2.6581669701
 H         -6.4608409307        0.2736923695       -1.3697393898
 O         -3.2979232007        0.1660299397       -1.8361647199
 C         -2.0837259206       -0.4184941600       -1.5027665297
 O         -1.2064039206       -0.2566614403       -2.3761037298
 O         -3.0425392103       -1.8108360490        1.6965219608
 C         -0.7024863904       -1.7836836093        0.1503672308
 C          0.2898717195       -0.7863022589        0.6990701504
 C          0.6445362796       -0.8010190584        2.0429616804
 C          1.5628297295        0.1071494619        2.5414135200
 C          2.1474261293        1.0449569316        1.7099981797
 C          1.7969397493        1.0685539211        0.3657588997
 C          0.8815073394        0.1537289908       -0.1332277500
 H          0.6041633293        0.1862670704       -1.1762542700
 N          2.3963702891        2.0117213609       -0.4892196407
 S          4.0679551591        2.1047087811       -0.4372283108
 O          4.4679032191        2.9529896915        0.6583936189
 O          4.4747636290        2.5444146507       -1.7534178610
 C          4.6088757393        0.4316703913       -0.1317672802
 C          4.2766177394       -0.5373722691       -1.0578317498
 C          4.6438966196       -1.8502352990       -0.8138911793
 C          5.3312609397       -2.1711956485        0.3466942308
 C          5.6621731596       -1.1859916081        1.2636066604
 C          5.2961429594        0.1292538418        1.0258135599
 H          5.5283631693        0.9258660321        1.7136097096
 H          6.1986552296       -1.4380431577        2.1640717805
 H          5.6098813698       -3.1958557884        0.5354402311
 H          4.3881234097       -2.6173571793       -1.5269808391
 H          3.7427290194       -0.2563857095       -1.9517633199
 H          2.0627975691        1.9571780505       -1.4407882807
 H          2.8617582492        1.7633768319        2.0786704194
 H          1.8260775995        0.0851099023        3.5877451600
 H          0.1836359697       -1.5232452282        2.7007961407
 H         -1.0029683803       -2.4418907090        0.9763958410
 C         -0.0727265803       -2.6349917596       -0.9354481689
 C          0.9086727198       -3.6975651293       -0.5451773286
 C         -0.4517582101       -4.0801367797       -1.0441644184
 H         -0.5401932801       -4.5162289101       -2.0279559782
 H         -1.1684802701       -4.4636767895       -0.3326641082
 H          1.7579486298       -3.8734487695       -1.1866957085
 H          1.1172760899       -3.8226283189        0.5062322715
 H          0.1031703496       -2.0983232899       -1.8583830691
