  62
        -98.93518091
 C         -2.4673725924       -0.8751092551        0.9433433108
 C         -3.6014677714       -1.0631137186        0.1147600407
 C         -4.6745234588       -0.0650818802        0.2653040266
 C         -4.5250614769        0.9499308351        1.1341114299
 C         -5.5128805728        2.0614246766        1.3370210023
 C         -5.2106284645        3.2505354003        0.4145139217
 C         -4.9970059458        2.8597873428       -1.0479480320
 H         -4.0865822482        2.2607106745       -1.1274667000
 H         -4.8228079198        3.7811399051       -1.6081337042
 C         -6.1672028205        2.0913147878       -1.6777921452
 H         -6.3657013737        2.5070939584       -2.6678879096
 H         -7.0681802983        2.2337863823       -1.0800086462
 C         -5.9149073026        0.5943025739       -1.8657815530
 H         -4.9638570630        0.4459960999       -2.3834562433
 H         -6.7033224794        0.1950496293       -2.5093412571
 C         -5.9021177186       -0.2465287360       -0.5830296119
 H         -5.9090349610       -1.2999396493       -0.8779193970
 H         -6.8045495933       -0.0454846824       -0.0023641567
 H         -4.3039507427        3.7446290355        0.7718022197
 H         -6.0358093496        3.9614627713        0.4862193573
 H         -6.5168820325        1.6869997285        1.1469197929
 H         -5.4484341961        2.3930057727        2.3747620091
 O         -3.4169807093        1.1046265334        1.9043893223
 C         -2.3682360824        0.2063899703        1.8228514222
 O         -1.4127217314        0.4648033634        2.5840646302
 H          1.3371761623       -1.2158591364        1.3139174554
 C          1.0471835431       -1.0847146312        0.2796704038
 C         -0.2626224422       -1.3439780738       -0.0939160224
 C         -0.6310998960       -1.1391105574       -1.4199908799
 C          0.2989603039       -0.6973870728       -2.3428323190
 C          1.6092588602       -0.4517734802       -1.9690091766
 C          1.9840406768       -0.6382446811       -0.6453220878
 N          3.3197327832       -0.4174097224       -0.2467175999
 S          4.0401986382        1.0729685856       -0.5896507207
 O          3.4043127969        2.1253971600        0.1745544980
 O          4.0737955760        1.2572806961       -2.0174693685
 C          5.6856901082        0.7696943769        0.0216230373
 C          6.5426406386        0.0104625691       -0.7521146305
 C          7.8156295048       -0.2569185798       -0.2749411048
 C          8.2080350116        0.2362048767        0.9607987242
 C          7.3371832718        0.9980687329        1.7248909972
 C          6.0614755564        1.2677577910        1.2540607223
 H          5.3538207421        1.8610931597        1.8110540668
 H          7.6456093241        1.3824132719        2.6838662127
 H          9.1997779308        0.0277039071        1.3299933639
 H          8.4966532190       -0.8473803071       -0.8663503449
 H          6.1975054970       -0.3446295840       -1.7088159837
 H          3.4359548659       -0.5964673089        0.7431090462
 H          2.3346135899       -0.0965422099       -2.6818274494
 H          0.0022211285       -0.5430617691       -3.3696591049
 H         -1.6517768580       -1.3300400862       -1.7157996532
 C         -1.2648493855       -1.8052859969        0.9330245193
 H         -0.8007147358       -1.6797909943        1.9243985693
 C         -1.6385284843       -3.2749366203        0.7955092392
 C         -1.3100539189       -4.1103142308       -0.4014670564
 C         -0.5669923421       -4.3218495579        0.8809200610
 H         -0.7593468898       -5.2156077136        1.4547547601
 H          0.4560125736       -3.9785940239        0.9246226475
 H         -0.7864106328       -3.6468750090       -1.2224354166
 H         -2.0385852188       -4.8442195963       -0.7101088566
 H         -2.5765439701       -3.4994833191        1.2923255247
 O         -3.7335627977       -2.0032506265       -0.7088224018
