  62
        -98.94532877
 C          1.5491208107        1.0644069094        0.2546343212
 C          2.8764676506        1.2041132088        0.7322067117
 C          3.9400055508        0.7810024594       -0.1842814383
 C          3.6199664211        0.2966440104       -1.3978866788
 C          4.5905648813       -0.1681466388       -2.4495502789
 C          5.0611676210       -1.6174080991       -2.2652338200
 C          6.0358970106       -1.8425580603       -1.1085715698
 H          6.4501816204       -2.8454301302       -1.2300600306
 H          6.8629873507       -1.1365811103       -1.1897737790
 C          5.4011487602       -1.7370393813        0.2852342900
 H          5.7354618298       -2.5746970919        0.9016067294
 H          4.3148550702       -1.8191669410        0.1983693896
 C          5.7427860701       -0.4533264520        1.0419313012
 H          5.2130434798       -0.4687138627        1.9977420411
 H          6.8143947701       -0.4259197724        1.2512942016
 C          5.3554413006        0.8360344687        0.3060928822
 H          5.4311863806        1.6682977981        1.0101162329
 H          6.0387781609        1.0156445893       -0.5234963474
 H          4.1837767208       -2.2552225390       -2.1326873208
 H          5.5542219112       -1.9203932784       -3.1918999901
 H          5.4547547515        0.4963814310       -2.4711696780
 H          4.0702683817       -0.0948048879       -3.4069776290
 O          2.3348747712        0.1905724911       -1.8263120293
 C          1.2682293910        0.5477423006       -1.0108149094
 O          0.1533570811        0.3759688612       -1.5378110399
 O          3.1586209203        1.6639926078        1.8709178422
 C          0.4120206905        1.4406834889        1.1913258511
 C         -0.2331186699        0.1659500186        1.6788341498
 C          0.4582001996       -0.6352095223        2.5851854094
 C         -0.0861764708       -1.8228526926        3.0330720482
 C         -1.3235563707       -2.2440943620        2.5751697974
 C         -2.0177308202       -1.4570321911        1.6658809979
 C         -1.4765376499       -0.2530110708        1.2349149291
 H         -2.0282946495        0.3494436399        0.5363123094
 N         -3.2838698202       -1.8402554604        1.1884807971
 S         -3.5314046196       -1.8547815890       -0.4769804129
 O         -4.6826142697       -2.7179643286       -0.6528105240
 O         -2.3350394995       -2.2520265786       -1.1805549329
 C         -4.0085419192       -0.1875257686       -0.8753092317
 C         -5.2000888493        0.2784867512       -0.3545202017
 C         -5.5951000889        1.5746521416       -0.6425063107
 C         -4.7969620385        2.3762516221       -1.4451831798
 C         -3.6064448584        1.8902071723       -1.9634896898
 C         -3.2026459288        0.5941489520       -1.6793568008
 H         -2.2662017987        0.1946414521       -2.0385878308
 H         -2.9811455481        2.5136133727       -2.5832903891
 H         -5.1018104382        3.3868339023       -1.6679797090
 H         -6.5195301990        1.9568527314       -0.2404942607
 H         -5.7917172596       -0.3811686092        0.2580658276
 H         -3.6352461205       -2.6949477107        1.5980001663
 H         -1.7469180410       -3.1767101822        2.9174154365
 H          0.4581454589       -2.4318443333        3.7393642279
 H          1.4308565296       -0.3121721628        2.9298542000
 H          0.8975231303        1.9215188080        2.0524204217
 C         -0.5594878492        2.4178141396        0.5658348716
 C         -1.5474911693        3.1326008390        1.4372594219
 C         -0.4035711490        3.8844091293        0.8277561229
 H         -0.6082808086        4.5745833800        0.0233625334
 H          0.4060006909        4.1942576786        1.4723464335
 H         -2.5414852091        3.3034443795        1.0527078217
 H         -1.5131706797        2.9298181781        2.4969263418
 H         -0.8814096889        2.1243298805       -0.4253667187
