  62
        -98.93599787
 C          2.3580221065        1.4758106222        0.1742050080
 C          2.4390740574        0.2964165815       -0.6004137968
 C          3.5282627996       -0.6426961234       -0.2626614398
 C          4.3459637744       -0.3579795432        0.7663501057
 C          5.5165809023       -1.1481782316        1.2944555692
 C          5.3185193750       -2.6653247651        1.4346875664
 C          6.1197532418       -3.4797101466        0.4175199262
 H          7.1012793280       -3.0165955509        0.2971353179
 H          6.2794929239       -4.4822539591        0.8204889401
 C          5.4625322917       -3.6330749813       -0.9529505060
 H          4.6092778109       -4.3101216426       -0.8711183577
 H          6.1896149388       -4.1059517411       -1.6173448167
 C          4.9834856186       -2.3310473702       -1.5980619990
 H          4.9227774675       -2.4958272986       -2.6759817417
 H          5.7101277916       -1.5352884469       -1.4384750565
 C          3.5961448485       -1.8793707904       -1.1169089745
 H          2.9633632185       -1.6533025365       -1.9811219489
 H          3.0964947168       -2.6983484814       -0.5906092773
 H          4.2592766223       -2.9092491479        1.3663121452
 H          5.6515820150       -2.9533670875        2.4331044298
 H          5.7337128383       -0.7108296084        2.2715734302
 H          6.3848777809       -0.9448872323        0.6628147230
 O          4.2170542026        0.7850493344        1.4993032888
 C          3.2359143968        1.7184709041        1.2324042744
 O          3.2458471848        2.7072535936        1.9920110319
 O          1.6518375752        0.0276182737       -1.5473323866
 C          1.2781261280        2.5185113945       -0.0713186843
 C         -0.0500583762        1.9193295994        0.3220368646
 C         -0.4101046269        1.8960613043        1.6668703610
 C         -1.5893402166        1.2994713884        2.0706231704
 C         -2.4299525041        0.7049684080        1.1448030877
 C         -2.0698684470        0.7059509969       -0.1953283634
 C         -0.8948734764        1.3260810883       -0.6019181743
 H         -0.6217251340        1.3088427251       -1.6448402936
 N         -2.9094696135        0.0982225689       -1.1434838436
 S         -3.5562332425       -1.4103941990       -0.7978102456
 O         -2.7041861632       -2.1776050951        0.0812708443
 O         -3.8487202161       -1.9995125882       -2.0865826308
 C         -5.0927359233       -1.0277558599        0.0195601083
 C         -5.4025625224       -1.6330002285        1.2216615564
 C         -6.6096266102       -1.3314202193        1.8332798052
 C         -7.4816281904       -0.4353693675        1.2344231832
 C         -7.1568581936        0.1622263577        0.0256389767
 C         -5.9525789387       -0.1360055402       -0.5914336367
 H         -5.6643148037        0.3049947573       -1.5308803321
 H         -7.8374296125        0.8587944727       -0.4368799672
 H         -8.4194971578       -0.2012277444        1.7128821143
 H         -6.8633004347       -1.7953873058        2.7729300467
 H         -4.6905464053       -2.3182952360        1.6537709945
 H         -2.5360163192        0.1199972751       -2.0817499592
 H         -3.3449569753        0.2271230656        1.4545190476
 H         -1.8576582126        1.2933926114        3.1162107825
 H          0.2575079837        2.3410818893        2.3919373802
 H          1.4968320497        3.3417718440        0.6215397575
 C          1.3172062774        3.0526457267       -1.4877005037
 C          0.5711885726        4.3101116419       -1.8153953485
 C          2.0689636605        4.3168296122       -1.7711734951
 H          2.6132120117        4.3938651509       -2.7005453966
 H          2.5551318967        4.8060207406       -0.9397178833
 H          0.0850882155        4.3871130907       -2.7759149636
 H          0.0384138338        4.7949632363       -1.0114725968
 H          1.3600735476        2.2755858788       -2.2404764634
