  62
        -98.94454971
 C          2.6106584117        1.2569466211        0.1225172549
 C          2.6438703595        0.3006874350       -0.9211732733
 C          3.5075089860       -0.8686564837       -0.6957017171
 C          4.2093264533       -0.9688181223        0.4469368791
 C          5.0788050567       -2.1316096958        0.8255072983
 C          4.2883592762       -3.1814799121        1.6188257503
 C          2.9586586997       -3.5743495535        0.9742288477
 H          2.2818551956       -2.7161145437        0.9902152717
 H          2.5071397764       -4.3449829154        1.6029757549
 C          3.0789314524       -4.0965135724       -0.4642958714
 H          2.4523130790       -4.9850737600       -0.5664647610
 H          4.1075536984       -4.3990802547       -0.6643770603
 C          2.6236399094       -3.1074095579       -1.5390775723
 H          1.6271380009       -2.7306770149       -1.2897986830
 H          2.5386176534       -3.6494472377       -2.4850188100
 C          3.5522345085       -1.9098080805       -1.7786468038
 H          3.2190572317       -1.4089259345       -2.6922953946
 H          4.5737205141       -2.2626741791       -1.9334180805
 H          4.0793100512       -2.7799426745        2.6129657567
 H          4.9131322872       -4.0688971323        1.7345670858
 H          5.4929863790       -2.5781668939       -0.0762231464
 H          5.8962757954       -1.7609205829        1.4460924220
 O          4.1668671777       -0.0248145586        1.4201402910
 C          3.3620393195        1.0924369335        1.2914721624
 O          3.4063956715        1.8664728847        2.2681232739
 H         -0.0194278428        1.1764378071       -1.4962548058
 C         -0.4526816349        1.4455310630       -0.5446675750
 C          0.3132031100        2.1412799693        0.3798946647
 C         -0.2482090244        2.4406786422        1.6161813723
 C         -1.5427782229        2.0536040934        1.9147045016
 C         -2.3004709425        1.3549149546        0.9915403493
 C         -1.7437199468        1.0404879535       -0.2408473348
 N         -2.4976919837        0.3072418828       -1.1787023614
 S         -3.0905271506       -1.1778205929       -0.6568305850
 O         -2.2642924418       -1.7411891022        0.3870427506
 O         -3.2475800133       -1.9737734083       -1.8547219390
 C         -4.7034401607       -0.7795221610       -0.0149418302
 C         -5.5950815335       -0.1380175045       -0.8525121233
 C         -6.8560274533        0.1770837648       -0.3722167998
 C         -7.2035427979       -0.1559499006        0.9287050437
 C         -6.2985147705       -0.8034178849        1.7556858282
 C         -5.0346392460       -1.1200296074        1.2817777974
 H         -4.2953757150       -1.6167702589        1.8899159600
 H         -6.5702630931       -1.0618422244        2.7665833999
 H         -8.1854963015        0.0906047280        1.3005161133
 H         -7.5625361805        0.6806722060       -1.0121575214
 H         -5.2859703147        0.0989774691       -1.8567633902
 H         -2.0150391955        0.1912729863       -2.0594785562
 H         -3.3060058585        1.0418748096        1.2213179908
 H         -1.9650686276        2.2941606148        2.8784918254
 H          0.3481403488        2.9623675490        2.3510053928
 C          1.7459076694        2.5096973702        0.0763778015
 H          2.1079972556        3.1470717045        0.8937057991
 C          1.8802850398        3.2773073425       -1.2235237263
 C          1.4713283619        4.7180115881       -1.2589334919
 C          2.9216963678        4.3482004838       -1.3336991426
 H          3.4393243648        4.4675105316       -2.2736666353
 H          3.5416779269        4.5330755762       -0.4683566911
 H          1.1076404540        5.1560217896       -0.3417726822
 H          0.9903303140        5.0949198570       -2.1483562115
 H          1.6952059115        2.6777131857       -2.1045481307
 O          1.9986018184        0.3949788362       -2.0005674599
