  62
        -98.94058760
 C         -1.8422896598       -1.1184045901        0.1855486192
 C         -2.1648242396       -0.0680561702       -0.7105784609
 C         -3.6007724996        0.1969773799       -0.8902911610
 C         -4.5133169897       -0.5479615398       -0.2429435309
 C         -6.0079632797       -0.4114089697       -0.3456352610
 C         -6.5981000296        0.6645961706        0.5761238888
 C         -6.3218359294        2.1076820005        0.1519671785
 H         -6.6129011493        2.2412155103       -0.8904616815
 H         -6.9687712893        2.7480030606        0.7549735484
 C         -4.8663859093        2.5570596803        0.3437951485
 H         -4.3588460794        1.8704679304        1.0254784486
 H         -4.8484843092        3.5431401604        0.8134561183
 C         -4.0570645093        2.6578728900       -0.9493208815
 H         -3.0345002992        2.9465536899       -0.6918076815
 H         -4.4779116992        3.4404790099       -1.5846810716
 C         -3.9922383394        1.3552576598       -1.7573032513
 H         -4.9501675094        1.1639673599       -2.2405973213
 H         -3.2264569794        1.4692724796       -2.5285821413
 H         -7.6801671696        0.5163703607        0.5990864888
 H         -6.2194311796        0.5036437307        1.5882002388
 H         -6.2882293596       -0.2017643298       -1.3782805011
 H         -6.4290617798       -1.3778200996       -0.0599316709
 O         -4.1639751299       -1.5562590597        0.5990681493
 C         -2.8337708199       -1.8393684599        0.8594239393
 O         -2.6628865501       -2.7469410097        1.6974022195
 O         -1.3207583095        0.6170078696       -1.3424577310
 C         -0.4076780399       -1.4854397802        0.5302067694
 C          0.3822919503       -0.2432392203        0.8522773192
 C          0.2430113603        0.3568893200        2.0995160391
 C          0.9622715705        1.4925301599        2.4258122789
 C          1.8343209006        2.0565670997        1.5105574888
 C          1.9645846205        1.4742447894        0.2586098489
 C          1.2519075004        0.3281684495       -0.0629428009
 H          1.3549511404       -0.1068951107       -1.0449030808
 N          2.8818326906        2.0319940891       -0.6677939912
 S          4.4749848806        1.6442928490       -0.3212235010
 O          4.8509408706        2.2945788092        0.9077232689
 O          5.2421108807        1.9924404287       -1.4956526811
 C          4.4528450103       -0.1256934810       -0.0939743007
 C          4.1626660102       -0.6353186307        1.1559425094
 C          4.0358151401       -2.0068191507        1.3065558896
 C          4.1966950900       -2.8400709709        0.2099849097
 C          4.4913889901       -2.3129317111       -1.0383433603
 C          4.6136555903       -0.9417318812       -1.1958810806
 H          4.8408881404       -0.4911591614       -2.1489394006
 H          4.6175211000       -2.9649474613       -1.8878880502
 H          4.0906550698       -3.9070745308        0.3297143299
 H          3.8027742200       -2.4194808605        2.2750293597
 H          4.0443268403        0.0451997195        1.9832647992
 H          2.6758955006        1.7661615690       -1.6212534811
 H          2.4201189507        2.9294506096        1.7492620687
 H          0.8450272705        1.9417256801        3.4004376388
 H         -0.4400376297       -0.0802324898        2.8152488491
 H         -0.4856425700       -2.0838826701        1.4515942295
 C          0.2922176401       -2.3633820805       -0.4975757705
 C         -0.4453221501       -3.4810775205       -1.1701703203
 C          0.0052417601       -2.2946971207       -1.9660076105
 H          0.8304141601       -2.4230991809       -2.6515672104
 H         -0.7369461998       -1.5898232007       -2.3057720706
 H          0.0627761198       -4.4225346706       -1.3127687901
 H         -1.4990721901       -3.5809102404       -0.9530698003
 H          1.3217979100       -2.5626614606       -0.2142269404
