  62
        -98.93016258
 C         -2.2965238260       -0.0137859326       -0.3983465301
 C         -3.3271237164        0.7641255339        0.1814597070
 C         -4.5973301012        0.0638983152        0.4678229670
 C         -4.7144300684       -1.2478362554        0.1952154994
 C         -5.8542661151       -2.2195363538        0.4214358784
 C         -7.2566984294       -1.7164219093        0.7534230684
 C         -7.9514394308       -0.9649970978       -0.3817164582
 H         -8.1887722985       -1.6777082801       -1.1756040236
 H         -8.8938407120       -0.5654885319       -0.0008362406
 C         -7.1475715872        0.1711296389       -1.0091204575
 H         -6.2477889929       -0.2319371160       -1.4786994495
 H         -7.7553093810        0.6109461114       -1.8046938714
 C         -6.7484897803        1.2947208271       -0.0545683356
 H         -6.3251843431        2.1030190857       -0.6570029776
 H         -7.6365838481        1.6826060467        0.4480589765
 C         -5.7056462156        0.9191274086        1.0121568798
 H         -5.2351317760        1.8423078924        1.3627695614
 H         -6.1717542212        0.4430746945        1.8712722963
 H         -7.2361308018       -1.1114097143        1.6549325550
 H         -7.8583726632       -2.6009410304        0.9795816474
 H         -5.8999475583       -2.8376645392       -0.4808866906
 H         -5.5228269008       -2.8807197846        1.2297291484
 O         -3.6802894532       -1.9632826358       -0.3401997614
 C         -2.4712340000       -1.3746681191       -0.6553326781
 O         -1.6400644123       -2.1573301523       -1.1605740910
 H          1.5955493522       -0.3806035107       -0.8136000683
 C          1.3116284435       -0.0097175918        0.1604498294
 C          0.0331809697        0.4844415825        0.3699841308
 C         -0.3133558450        0.9288244406        1.6422662604
 C          0.6076982926        0.8852798163        2.6728678210
 C          1.8918482605        0.4187510477        2.4530000100
 C          2.2450211598       -0.0345219900        1.1874741967
 N          3.5330954811       -0.5291635609        0.9304001928
 S          4.2072626210       -0.2090874799       -0.5855827913
 O          3.9132227701        1.1513304234       -0.9749197798
 O          3.7948923066       -1.2389280317       -1.5058464965
 C          5.9427121198       -0.3887675897       -0.2189421300
 C          6.6873962066        0.7329970860        0.0936263793
 C          8.0291000030        0.5806088594        0.4062437911
 C          8.5992166938       -0.6836104027        0.4039983133
 C          7.8391238095       -1.7998642602        0.0872885836
 C          6.4973062359       -1.6547637215       -0.2273687493
 H          5.8692918452       -2.4905154989       -0.4890896813
 H          8.2864502866       -2.7807490756        0.0833318577
 H          9.6434809220       -0.7995265589        0.6474998084
 H          8.6235524048        1.4465507547        0.6491167842
 H          6.2040758192        1.6965858656        0.0730708994
 H          4.1840706809       -0.3492801805        1.6825343708
 H          2.6129951256        0.3988027065        3.2559178408
 H          0.3267918045        1.2331764646        3.6556012751
 H         -1.3056250624        1.3191811898        1.8095603143
 C         -0.9377938729        0.5475473706       -0.7805917705
 H         -0.5561440283       -0.1293958689       -1.5630577450
 C         -1.0130725045        1.9393139690       -1.3956115801
 C         -0.5455290724        3.1800962366       -0.7031461128
 C          0.2409817282        2.6265675888       -1.8509551679
 H          0.2255759092        3.1542113778       -2.7930028594
 H          1.1863400068        2.1492462496       -1.6325418630
 H         -1.1217472248        4.0805938085       -0.8507414349
 H         -0.1332878539        3.0859577499        0.2888681408
 H         -1.8829148249        2.0475590860       -2.0362218136
 O         -3.2168472817        1.9834709012        0.4655221850
