  62
        -98.93639810
 C         -2.1015856542       -1.2904338694       -0.1380302020
 C         -2.5654375358       -0.1439406819       -0.8252085909
 C         -3.9592715015        0.2414807280       -0.5583550721
 C         -4.7092067974       -0.4993089401        0.2771695218
 C         -6.1610426950       -0.2844752900        0.6146449568
 C         -6.4980498172        1.0070936394        1.3844588341
 C         -6.9150040927        2.1836601826        0.4934743969
 H         -7.3063084940        1.7915873642       -0.4461195655
 H         -7.7366035263        2.7159970084        0.9770517889
 C         -5.8243313612        3.2185594109        0.2007804270
 H         -5.7015779425        3.8640893742        1.0735124182
 H         -6.1704261580        3.8449547699       -0.6242960435
 C         -4.4460748128        2.6566104859       -0.1490004698
 H         -3.9560954815        2.2929673758        0.7575623233
 H         -3.8282952027        3.4756024230       -0.5231005820
 C         -4.4598164651        1.5120831618       -1.1809508481
 H         -5.4598086038        1.3734960399       -1.5894831327
 H         -3.7800593476        1.7451010855       -2.0031041254
 H         -7.3317469702        0.7709747854        2.0476742386
 H         -5.6537394888        1.2864162627        2.0142031545
 H         -6.7438638681       -0.3177908776       -0.3086317627
 H         -6.4482736394       -1.1455607730        1.2215181458
 O         -4.2247663818       -1.6036678369        0.9090394112
 C         -2.9140275020       -2.0136469010        0.7352923570
 O         -2.5961775908       -3.0206501752        1.3996858546
 O         -1.8608590684        0.5205332426       -1.6292056951
 C         -0.6724899792       -1.7683154998       -0.3290263844
 C          0.2810758340       -0.6705728386        0.0746734503
 C          0.2130802682       -0.1773640672        1.3754728276
 C          1.0523752346        0.8369977449        1.7934239284
 C          1.9808669054        1.3828665726        0.9238506159
 C          2.0625924370        0.8928397517       -0.3719239788
 C          1.2248513928       -0.1359224422       -0.7867234831
 H          1.3000057672       -0.4998979304       -1.7990744659
 N          3.0069397135        1.4360134616       -1.2573051137
 S          4.5600874597        1.7019932400       -0.7001320853
 O          4.6070260386        2.9267078632        0.0589468640
 O          5.3968436244        1.6571363964       -1.8785277528
 C          4.9087049025        0.3150787818        0.3674506144
 C          4.8938867250       -0.9503513337       -0.1854995295
 C          5.1275272754       -2.0425731299        0.6336032962
 C          5.3691120973       -1.8522827069        1.9857733043
 C          5.3850310942       -0.5755543306        2.5248276866
 C          5.1509166359        0.5207869673        1.7100452899
 H          5.1531190419        1.5298950723        2.0887435632
 H          5.5751561679       -0.4305549826        3.5761000744
 H          5.5467663895       -2.7049826907        2.6219639957
 H          5.1177454219       -3.0368766518        0.2167117380
 H          4.7100906915       -1.0640148959       -1.2416649480
 H          3.0029669791        1.0191349314       -2.1760830386
 H          2.6305392349        2.1880944568        1.2259659911
 H          0.9821744483        1.2114793100        2.8034597437
 H         -0.5172471140       -0.5996527467        2.0526948276
 H         -0.5394302843       -2.6073100741        0.3685310829
 C         -0.4710819770       -2.2738978222       -1.7418787284
 C          0.6142629750       -3.2650904091       -2.0343072638
 C         -0.8210513253       -3.6955842383       -2.0580746846
 H         -1.2804194541       -3.9134715870       -3.0106360781
 H         -1.1883169503       -4.3080707105       -1.2474775264
 H          1.1411165156       -3.1938521784       -2.9740436530
 H          1.2256425444       -3.5923035688       -1.2072478041
 H         -0.7021643756       -1.5264934732       -2.4922257451
