  62
        -98.93392862
 C          2.3173045390       -0.1688508514       -0.2219324542
 C          3.5091603608       -0.5086143410       -0.9032267918
 C          4.7121897141        0.2575215807       -0.5389719729
 C          4.6194493730        1.2263488888        0.3881960157
 C          5.6990651230        2.1562755155        0.8831889296
 C          7.0822400418        1.5518216309        1.1621382279
 C          7.0680757660        0.1014965457        1.6666675848
 H          7.6775756538        0.0340553355        2.5697670319
 H          6.0520887308       -0.1912009768        1.9373219968
 C          7.6304282011       -0.8909534820        0.6460613243
 H          7.9334377085       -1.8002948033        1.1706422197
 H          8.5269912582       -0.4595131105        0.1956594721
 C          6.6657592714       -1.3093948640       -0.4628630973
 H          5.8769356000       -1.9431304874       -0.0484591075
 H          7.2212788665       -1.9184412263       -1.1800693792
 C          5.9857653887       -0.1562455958       -1.2188794333
 H          6.6636883092        0.6834443270       -1.3504571662
 H          5.6939790455       -0.5276522819       -2.2049950620
 H          7.6927109048        1.6076365027        0.2619887363
 H          7.5606979896        2.1910761648        1.9059959833
 H          5.8035681938        2.9704523720        0.1602281745
 H          5.2975312607        2.5915967914        1.8013089320
 O          3.4450947234        1.5277742978        1.0126914450
 C          2.2723452129        0.8441259449        0.7340560461
 O          1.2861855896        1.2280652726        1.3911862453
 O          3.5642052252       -1.4037386162       -1.7888824215
 C          1.0448054537       -0.9305860038       -0.5421183944
 C         -0.0297086425        0.0186963985       -1.0105059998
 C          0.2568861935        0.8892457958       -2.0599393369
 C         -0.6969297112        1.7719953731       -2.5262034020
 C         -1.9624995096        1.7974830091       -1.9663054429
 C         -2.2584770832        0.9349659713       -0.9182196109
 C         -1.2952096926        0.0517375907       -0.4486670623
 H         -1.5545436283       -0.6049753053        0.3644224978
 N         -3.5237892357        0.9570927367       -0.3108737600
 S         -4.1722778930       -0.4845687723        0.2776370151
 O         -3.6437668693       -0.7396094294        1.5939205282
 O         -4.0008725195       -1.5395861988       -0.6958571058
 C         -5.8934635913       -0.0325115058        0.4001164067
 C         -6.3117326723        0.6931186438        1.4997420863
 C         -7.6422022612        1.0709013725        1.5863167043
 C         -8.5274947766        0.7193840399        0.5779254772
 C         -8.0937410253       -0.0107338831       -0.5183407045
 C         -6.7639705225       -0.3905378633       -0.6119904474
 H         -6.3835150722       -0.9656596538       -1.4407607954
 H         -8.7850466543       -0.2856332629       -1.2985855253
 H         -9.5626680632        1.0137431242        0.6488251268
 H         -7.9835336243        1.6358392319        2.4387182601
 H         -5.5899576983        0.9349082172        2.2625940611
 H         -4.2044275484        1.4918734127       -0.8326334452
 H         -2.7097284475        2.4855559789       -2.3314193784
 H         -0.4575539303        2.4419687481       -3.3384270275
 H          1.2438205682        0.8636813895       -2.5022018769
 H          1.3030006505       -1.5929795997       -1.3825147219
 C          0.6280927493       -1.7848195296        0.6361204535
 C         -0.2056808990       -3.0108377619        0.4187115251
 C          1.2353159460       -3.1435337099        0.8078533549
 H          1.4719443323       -3.4805533312        1.8059317599
 H          1.9392054749       -3.4701449232        0.0562414203
 H         -0.9667298259       -3.2501744248        1.1467767553
 H         -0.4861167210       -3.2500083625       -0.5962306999
 H          0.4475228215       -1.2005952248        1.5325229489
