  62
        -98.94666773
 C         -1.5002958000       -1.6258602632       -0.0966051647
 C         -1.5930338845       -0.5457205993       -1.0096332291
 C         -2.8774550523        0.1697638690       -1.0251464446
 C         -3.8892890872       -0.2356322046       -0.2383563853
 C         -5.2684105372        0.3636938173       -0.1804397672
 C         -5.3872149993        1.5799299178        0.7474297055
 C         -4.7231973347        2.8565648613        0.2303381264
 H         -5.0740673639        3.0646402404       -0.7810184926
 H         -5.0607439078        3.6762147176        0.8678069921
 C         -3.1885269302        2.8195139608        0.2461791874
 H         -2.8461842302        2.0131827738        0.8996055876
 H         -2.8003501423        3.7493441955        0.6685230326
 C         -2.5374361191        2.6478771995       -1.1262329043
 H         -2.7519456743        3.5229892740       -1.7446774697
 H         -1.4552973272        2.5995118762       -0.9768067579
 C         -2.9837500392        1.3914904578       -1.8865188146
 H         -4.0042239858        1.5154163197       -2.2500339320
 H         -2.3197475136        1.2561623778       -2.7437809036
 H         -4.9651081983        1.3201135690        1.7210363225
 H         -6.4518975102        1.7802157512        0.8885412037
 H         -5.5890152978        0.6397852379       -1.1854200011
 H         -5.9307988430       -0.4200750081        0.1937537203
 O         -3.7740508107       -1.2973110751        0.6032022391
 C         -2.5802281564       -1.9885893256        0.7144589276
 O         -2.6068688637       -2.9147755498        1.5512716412
 H          0.4229360295        0.1699880270        0.4166898092
 C          0.9589313597       -0.4806084395        1.0877534595
 C          0.7182197145       -1.8461403964        1.0783125001
 C          1.4085065002       -2.6515852488        1.9781899873
 C          2.3166251480       -2.1017379893        2.8637674658
 C          2.5626324859       -0.7407535610        2.8621583962
 C          1.8748393112        0.0754352790        1.9711277359
 N          2.0891255832        1.4600540335        1.9666965767
 S          2.0867456390        2.3236147971        0.5322659763
 O          2.8045792766        3.5384279282        0.8618877085
 O          0.7404938854        2.5027534624        0.0572475774
 C          3.0643294714        1.3441180486       -0.5913275735
 C          2.4731585682        0.6363510332       -1.6165875783
 C          3.2778132862       -0.1448594240       -2.4333258935
 C          4.6441998759       -0.2054509775       -2.2129624999
 C          5.2224601898        0.5182874725       -1.1805712357
 C          4.4264286530        1.2993747739       -0.3604528376
 H          4.8377154583        1.8884048674        0.4433062664
 H          6.2866287063        0.4740197954       -1.0136004489
 H          5.2616597822       -0.8180109416       -2.8509594840
 H          2.8250772183       -0.7044952082       -3.2367659660
 H          1.4053330241        0.6903446594       -1.7625366316
 H          2.8206263417        1.7766552521        2.5858371266
 H          3.2703641201       -0.3079341481        3.5524813256
 H          2.8404539473       -2.7376570582        3.5608430620
 H          1.2157596328       -3.7137126784        1.9919131919
 C         -0.2500936163       -2.4663734883        0.0964109575
 H         -0.5960877061       -3.4147712226        0.5312369879
 C          0.4787217143       -2.7742695100       -1.1990746282
 C          1.2899608942       -4.0279395142       -1.3128050897
 C          0.0000053604       -3.8985917883       -2.0651204192
 H          0.0301876418       -3.7711606746       -3.1366312854
 H         -0.8519763454       -4.4663244528       -1.7191244643
 H          1.3117856702       -4.6946783009       -0.4645548749
 H          2.2149998845       -3.9915075713       -1.8669187762
 H          0.8489231488       -1.8881734116       -1.6958274649
 O         -0.6749492821       -0.1825937242       -1.7906041970
