  62
        -98.93882063
 C         -2.7929013355       -0.0531542204       -0.2716259500
 C         -2.7688353601        0.8545965896        0.8190924076
 C         -2.3563474862        2.2279631047        0.5192372970
 C         -2.0334168598        2.5623138047       -0.7428221914
 C         -1.5709328648        3.9140814176       -1.2129717964
 C         -0.0678466680        4.1472201316       -1.0052304552
 C          0.3510329108        4.4165690106        0.4407839689
 H          1.3697041875        4.8082509836        0.4115449295
 H         -0.2866530002        5.1917007676        0.8680346400
 C          0.3319087139        3.1741770499        1.3422101868
 H          1.2459611962        3.1407081458        1.9407910070
 H          0.3408799487        2.2715272039        0.7254107056
 C         -0.8438939452        3.1063873527        2.3173100875
 H         -0.7788769742        2.1555043636        2.8530860551
 H         -0.7586248597        3.9139110762        3.0487408382
 C         -2.2275732288        3.1908358863        1.6603875391
 H         -2.9769086309        2.9199129235        2.4085986023
 H         -2.4210382695        4.2085607005        1.3215922257
 H          0.4759289483        3.2750207465       -1.3776720767
 H          0.2175002537        5.0089433472       -1.6134273700
 H         -2.1379875353        4.6964061376       -0.7075396608
 H         -1.7845909181        3.9621341977       -2.2829113566
 O         -2.1064181364        1.6779037469       -1.7693709601
 C         -2.4316093166        0.3423077654       -1.5598844631
 O         -2.3721016695       -0.3487965242       -2.5952023272
 O         -3.0831336853        0.5228995136        1.9941571349
 C         -3.0847965441       -1.5038280989        0.0763875741
 C         -1.7987297078       -2.1305814450        0.5565377283
 C         -1.7270560099       -2.8612517252        1.7358963823
 C         -0.5106710157       -3.3275007354        2.2062418928
 C          0.6611527709       -3.0559952912        1.5215004119
 C          0.5942021849       -2.3441117998        0.3340739715
 C         -0.6253622484       -1.9044599560       -0.1496092244
 H         -0.6546311595       -1.3352117495       -1.0690156810
 N          1.8031795406       -1.9685166730       -0.3294239832
 S          2.1674784101       -0.3548754915        0.0608501926
 O          1.9008359304       -0.1668931147        1.4638612045
 O          1.5010607998        0.5432236210       -0.8599120334
 C          3.9263807479       -0.3218393114       -0.2266233929
 C          4.4269581358        0.2328788905       -1.3877264569
 C          5.7959088299        0.2086730865       -1.6060129766
 C          6.6344849003       -0.3708512914       -0.6663597814
 C          6.1161486174       -0.9247848390        0.4950228025
 C          4.7492408387       -0.9023848339        0.7191189195
 H          4.2995522832       -1.3114859378        1.6085354396
 H          6.7715978234       -1.3729393254        1.2242199141
 H          7.6988732343       -0.3894595258       -0.8395806388
 H          6.2009620230        0.6405644933       -2.5070146407
 H          3.7378767349        0.6780003392       -2.0876671702
 H          1.6911889691       -2.0027238517       -1.3355089935
 H          1.6200266200       -3.3709008191        1.8987718956
 H         -0.4729325709       -3.8838001343        3.1303298956
 H         -2.6293101903       -3.0330984618        2.3046071878
 H         -3.7720997533       -1.4635096908        0.9366225735
 C         -3.7707985361       -2.2940352536       -1.0253635603
 C         -3.0772739445       -3.3522257485       -1.8246881599
 C         -4.1051989446       -3.7402584144       -0.8072881054
 H         -5.0609270969       -4.1062541698       -1.1495972423
 H         -3.7539630979       -4.1989256256        0.1045711855
 H         -3.3219332659       -3.4261525815       -2.8730300561
 H         -2.0403994745       -3.5565189923       -1.6068207947
 H         -4.5040369292       -1.6962036549       -1.5558042259
