  62
        -98.94068579
 C         -1.7279452849       -0.3271853833        0.5138523140
 C         -2.9348272449       -0.4761873596        1.2435095072
 C         -4.1477419137       -0.7216947305        0.4525824453
 C         -4.0566400278       -0.7716017417       -0.8886844951
 C         -5.2181595619       -0.9569416100       -1.8207257769
 C         -5.8091591608        0.3943604899       -2.2463960455
 C         -6.0830831263        1.3440310052       -1.0801566543
 H         -5.1330037336        1.6311142012       -0.6235428090
 H         -6.5255086742        2.2515848675       -1.4966841259
 C         -7.0116463737        0.7721507199        0.0002849059
 H         -7.7445515337        1.5349358329        0.2716801855
 H         -7.5637881502       -0.0795973719       -0.3985547034
 C         -6.3032480559        0.3566735832        1.2910316198
 H         -7.0651200648        0.1758206233        2.0540209548
 H         -5.6753554016        1.1781205085        1.6455694645
 C         -5.4380055019       -0.9067037667        1.2007109828
 H         -5.1566006069       -1.1889359007        2.2195516909
 H         -6.0216509253       -1.7214785578        0.7672601464
 H         -6.7360186262        0.2092684863       -2.7923520311
 H         -5.1055526553        0.8812989234       -2.9255659723
 H         -5.9792658794       -1.5597333804       -1.3290390137
 H         -4.8661522382       -1.4848446866       -2.7085458862
 O         -2.8876245489       -0.6052696485       -1.5553900693
 C         -1.6959156512       -0.3643122188       -0.8813228168
 O         -0.7172195122       -0.2075303655       -1.6331248420
 O         -2.9950679443       -0.4009809422        2.5001222350
 C         -0.4598819808       -0.0531512200        1.3021579177
 C          0.2975238304        1.0985916238        0.6919167121
 C         -0.3435824232        2.3295741433        0.5706227604
 C          0.3021951489        3.4115206665        0.0071414818
 C          1.6127637995        3.2977569441       -0.4240753502
 C          2.2643969979        2.0783952173       -0.2996273601
 C          1.6044335580        0.9865852747        0.2478203862
 H          2.1212208924        0.0439370317        0.3076491611
 N          3.5905929697        1.9212259228       -0.7296016157
 S          4.6598354470        1.0575966348        0.2234132545
 O          4.3459442542        1.1907713642        1.6273820983
 O          5.9695246390        1.5254531432       -0.1796543154
 C          4.4805054943       -0.6376767831       -0.2875387481
 C          4.4222056393       -0.9242639690       -1.6367638573
 C          4.3316818979       -2.2481090767       -2.0354545846
 C          4.3089908604       -3.2577080002       -1.0852216177
 C          4.3715158590       -2.9534160507        0.2660482126
 C          4.4586763785       -1.6307214477        0.6714999465
 H          4.4995436156       -1.3482789864        1.7116017808
 H          4.3519452408       -3.7396778983        1.0042165684
 H          4.2386550354       -4.2874101821       -1.3987314274
 H          4.2784958434       -2.4888510870       -3.0849609245
 H          4.4423883918       -0.1152034309       -2.3475085284
 H          4.0166856711        2.7530565543       -1.1113051635
 H          2.1231575507        4.1440502271       -0.8586802445
 H         -0.2127642245        4.3557470931       -0.0896114418
 H         -1.3647168545        2.4218314173        0.9162505840
 H         -0.8199238599        0.2723012470        2.2933948078
 C          0.4061005189       -1.2808287734        1.5407671743
 C         -0.2007239018       -2.6483310054        1.6281684494
 C          0.6769176107       -2.2912718884        0.4680447335
 H          1.6633616877       -2.7280644747        0.4149848122
 H          0.2207648267       -2.1289429241       -0.4954584131
 H          0.1800805686       -3.3303374073        2.3733185273
 H         -1.2641858999       -2.7353415104        1.4592080783
 H          1.2197835156       -1.0709571660        2.2295300002
