  62
        -98.94460829
 C         -1.7359025875       -1.0728980300       -0.0127681767
 C         -2.9442850046       -1.0770534173        0.7352053375
 C         -4.1207725859       -0.4964362403        0.0815348103
 C         -4.0176049594       -0.0229262123       -1.1730844946
 C         -5.1313598873        0.5687986329       -1.9932595284
 C         -5.3882817954        2.0565830547       -1.7176429724
 C         -6.0576992341        2.3633290681       -0.3774056848
 H         -6.3746993084        3.4076490539       -0.4096048216
 H         -6.9559974811        1.7539838455       -0.2733094127
 C         -5.1510106862        2.1608857497        0.8448154540
 H         -4.1074280225        2.1240349722        0.5230868521
 H         -5.2469885959        3.0179715669        1.5152674155
 C         -5.4606027267        0.9081830074        1.6647475252
 H         -6.4562182290        0.9959265808        2.1052253185
 H         -4.7354877993        0.8459844524        2.4802623163
 C         -5.3925453031       -0.4016443405        0.8686356696
 H         -5.4087423777       -1.2341486104        1.5762300972
 H         -6.2558748205       -0.4860847539        0.2088270652
 H         -4.4389492544        2.5936065041       -1.7817592746
 H         -6.0346736095        2.4289109259       -2.5158201701
 H         -4.8396952488        0.4580614734       -3.0399349900
 H         -6.0487251713        0.0034784135       -1.8265327969
 O         -2.8501046450       -0.0509797679       -1.8646867523
 C         -1.6813806301       -0.5488263468       -1.3042252792
 O         -0.6967062251       -0.4579281387       -2.0662769654
 H          0.6835296739        0.3811581956       -0.6032540493
 C          0.9432114537        0.3506330608        0.4446126963
 C          0.3957797846       -0.6353675170        1.2530804916
 C          0.7476407518       -0.6597948265        2.5973291507
 C          1.6263263212        0.2763795502        3.1157812630
 C          2.1692710532        1.2581214019        2.3059037199
 C          1.8151619664        1.2949441484        0.9641622461
 N          2.3784551146        2.2832539168        0.1216038230
 S          4.0146596917        2.0639310260       -0.1777293960
 O          4.7470336996        2.3381204583        1.0323385785
 O          4.3265016579        2.8967790762       -1.3169095128
 C          4.1546223826        0.3380258852       -0.6029139407
 C          3.8974080347       -0.0418066146       -1.9047438024
 C          3.9213707527       -1.3887643144       -2.2269430647
 C          4.1892283631       -2.3272745758       -1.2425376012
 C          4.4373006524       -1.9301926908        0.0622653269
 C          4.4185024010       -0.5842566109        0.3895113986
 H          4.6081293678       -0.2333616445        1.3905294237
 H          4.6399040555       -2.6633564456        0.8261454504
 H          4.2065958300       -3.3754673410       -1.4977118050
 H          3.7231479239       -1.7007172768       -3.2399639415
 H          3.6943956254        0.7187022625       -2.6420650283
 H          1.8962051399        2.3467708530       -0.7650517838
 H          2.8675360038        1.9864275900        2.6853951396
 H          1.8907750806        0.2422878285        4.1616132756
 H          0.3210818970       -1.4154863055        3.2403126956
 C         -0.5215471738       -1.6815203668        0.6676295736
 H         -0.9311288679       -2.2709157593        1.4989229897
 C          0.2721452347       -2.6096819684       -0.2328306212
 C          1.0632001152       -3.7208206836        0.3857675623
 C         -0.1769464407       -4.0291275595       -0.3971737466
 H         -0.0780047613       -4.4899991034       -1.3682941852
 H         -1.0599457348       -4.3385651782        0.1431302505
 H          2.0187046449       -3.9713452878       -0.0462989492
 H          1.0218388264       -3.8269582054        1.4589300492
 H          0.6888116450       -2.1144693140       -1.1004063275
 O         -3.0345132749       -1.5575373218        1.8960048600
