  62
        -98.93985890
 C          1.8380177190        1.0098695180        0.4840649546
 C          2.4006432820       -0.0932116410        1.1771473465
 C          3.8557831607       -0.2492496538        1.0840070652
 C          4.5772412370        0.6489990696        0.3898595479
 C          6.0722953121        0.6460761337        0.2204975252
 C          6.5696498890       -0.2621835384       -0.9122640623
 C          6.4845457639       -1.7623743130       -0.6282638749
 H          7.0617975631       -2.2686063177       -1.4045175391
 H          6.9642859417       -1.9783834640        0.3268785626
 C          5.0571259467       -2.3275475179       -0.6286690573
 H          4.3848329902       -1.6229376892       -1.1238691575
 H          5.0316805229       -3.2533977021       -1.2078591382
 C          4.5005753145       -2.6474968381        0.7589301504
 H          3.4736003825       -3.0041745602        0.6425232273
 H          5.0859442115       -3.4503126967        1.2129733462
 C          4.4799271611       -1.4532115056        1.7219263799
 H          3.8721197695       -1.7226280872        2.5893522948
 H          5.4906245341       -1.2247086765        2.0599967920
 H          6.0056016306       -0.0308051401       -1.8186752388
 H          7.6159289059       -0.0084863158       -1.0975519343
 H          6.3609349205        1.6737063901       -0.0104277342
 H          6.5464852397        0.3538324966        1.1578452410
 O          4.0070559921        1.7071191056       -0.2403840257
 C          2.6294240855        1.9040519750       -0.2389984279
 O          2.2711540567        2.8948266581       -0.9001558742
 O          1.7145330423       -0.9056117154        1.8547884432
 C          0.3290877772        1.1635681469        0.5646039482
 C         -0.3372650220        0.4458750051       -0.5813306108
 C          0.0249586313        0.7101724361       -1.8996233887
 C         -0.5825318690        0.0344761000       -2.9411876377
 C         -1.5641712739       -0.9088855824       -2.6918685861
 C         -1.9284764181       -1.1852669507       -1.3792228340
 C         -1.3171618007       -0.5044684149       -0.3333845862
 H         -1.5880965597       -0.7504530788        0.6824176514
 N         -2.9063687472       -2.1477115536       -1.1050574422
 S         -3.8906686624       -2.0460580761        0.2333753205
 O         -3.1736233506       -2.4255907773        1.4244810350
 O         -5.0316513170       -2.8705782450       -0.1037815267
 C         -4.4037748646       -0.3404106116        0.3515784629
 C         -4.7980213276        0.3290553700       -0.7902478785
 C         -5.2300075607        1.6411851810       -0.6827625329
 C         -5.2717043475        2.2569131680        0.5585942818
 C         -4.8788787696        1.5700690441        1.6967006524
 C         -4.4370734770        0.2601064341        1.5938147035
 H         -4.1085874592       -0.3054799140        2.4513937400
 H         -4.9077451225        2.0496895495        2.6618679585
 H         -5.6079295568        3.2781674190        0.6397278023
 H         -5.5316281236        2.1791941018       -1.5668087046
 H         -4.7648089533       -0.1731201950       -1.7430715370
 H         -3.3743165578       -2.5406851913       -1.9074166614
 H         -2.0356801043       -1.4385219017       -3.5054963027
 H         -0.2918615670        0.2467012716       -3.9589818296
 H          0.7872020816        1.4493698696       -2.0939376514
 H          0.0451270434        0.6347235592        1.4887557511
 C         -0.1241332664        2.6099548767        0.7096015879
 C         -0.9271437341        3.3366719272       -0.3236781650
 C         -1.5729317539        2.9091836105        0.9574293129
 H         -1.8292958321        3.6605866069        1.6883050049
 H         -2.2605097222        2.0774951929        0.9166887507
 H         -0.7094598218        4.3826783784       -0.4749312908
 H         -1.1933146005        2.8128691537       -1.2276043826
 H          0.5971660881        3.2054110610        1.2595757984
