  62
        -98.93790470
 C         -1.7254405362       -0.3452060409        0.5220105638
 C         -2.9249042770       -0.2355342365        1.2607397225
 C         -4.1766326898       -0.4932365532        0.5279219513
 C         -4.1230400450       -0.8040872719       -0.7810257837
 C         -5.2200274137       -1.1545631979       -1.7648129304
 C         -6.6823097053       -0.8516884209       -1.4474414002
 C         -7.0265862334        0.6349965718       -1.3679116935
 H         -6.9448876953        1.0655633600       -2.3691455538
 H         -8.0675785275        0.7273710411       -1.0504112722
 C         -6.1481770505        1.4662209369       -0.4361273712
 H         -6.5084926369        2.4981081579       -0.4694639657
 H         -5.1217193253        1.4729590515       -0.8088361710
 C         -6.1429445835        1.0233281417        1.0258938630
 H         -7.1679398584        0.9706848515        1.3979440111
 H         -5.6186077102        1.7921201747        1.6001098462
 C         -5.4468551104       -0.3197173258        1.3096188862
 H         -5.1615918854       -0.3347995586        2.3656049715
 H         -6.1189323689       -1.1578488195        1.1415223012
 H         -6.9845156265       -1.3604929396       -0.5368325225
 H         -7.2719520974       -1.2828755505       -2.2611165392
 H         -5.1226276678       -2.2304590658       -1.9475530374
 H         -4.9472263671       -0.6576537101       -2.7011416436
 O         -2.9372270695       -0.9010732515       -1.4509563568
 C         -1.7192455434       -0.6689878106       -0.8333401253
 O         -0.7325105527       -0.7825437259       -1.5836261411
 O         -2.9526379781        0.0636503800        2.4855145657
 C         -0.4014614538       -0.0859711497        1.2164436912
 C          0.3186922441        1.0578722630        0.5467261962
 C         -0.3773133949        2.2388440605        0.2981746096
 C          0.2392522238        3.3039502080       -0.3274462966
 C          1.5670878020        3.2199475190       -0.7093655883
 C          2.2742734810        2.0515830011       -0.4568330965
 C          1.6496157095        0.9811428073        0.1701455240
 H          2.2160616486        0.0858429838        0.3610311134
 N          3.6108973560        1.9260979408       -0.8560999812
 S          4.7064592215        1.0575369541        0.0556265682
 O          4.4701796472        1.2170357861        1.4716242997
 O          6.0006239305        1.4986711054       -0.4203364605
 C          4.4647916235       -0.6409464911       -0.4200450534
 C          4.6236295242       -1.6262477525        0.5343931151
 C          4.4705441021       -2.9525378629        0.1623756412
 C          4.1639772135       -3.2686235476       -1.1520279934
 C          4.0119637651       -2.2674960429       -2.0991775405
 C          4.1670310647       -0.9397391015       -1.7345514397
 H          4.0482652653       -0.1388945652       -2.4450563380
 H          3.7684590114       -2.5166277023       -3.1194971019
 H          4.0402461095       -4.3009326339       -1.4393290779
 H          4.5880594453       -3.7329012197        0.8975949631
 H          4.8515005736       -1.3336894845        1.5473007304
 H          4.0209922109        2.7506222164       -1.2685014600
 H          2.0498559646        4.0500774586       -1.2023003857
 H         -0.3156177151        4.2104415435       -0.5180831054
 H         -1.4143725410        2.3063825097        0.5980764167
 H         -0.6617774580        0.2265109442        2.2389860269
 C          0.4128020205       -1.3603734243        1.2886668697
 C          1.4046034180       -1.5631518225        2.3935192654
 C          0.1250558196       -2.3427188125        2.3827276763
 H          0.1648686407       -3.3966283056        2.1526983203
 H         -0.6428611754       -2.0796728899        3.0955366005
 H          2.3233237483       -2.0829090949        2.1681998205
 H          1.5160532047       -0.7704277588        3.1180367053
 H          0.6507664800       -1.7581718284        0.3081968738
