  62
        -98.94469837
 C         -2.5710953495        0.1706318955        0.3558760523
 C         -2.1536082494        0.7133554440       -0.8838738269
 C         -1.6850697897        2.1059664927       -0.8472139150
 C         -1.6630798133        2.7641469587        0.3255875810
 C         -1.1948399843        4.1785314298        0.5113846959
 C          0.2944598969        4.2420745569        0.8733604719
 C          1.1960294580        3.4270851150       -0.0543590300
 H          2.2275995944        3.6016511477        0.2619776820
 H          1.0004587828        2.3616598171        0.0920879537
 C          1.0538485507        3.7656198678       -1.5448562930
 H          0.5893990827        4.7462222313       -1.6613718704
 H          2.0523634911        3.8225882809       -1.9830212198
 C          0.2731082448        2.7275870034       -2.3539246248
 H          0.4558127305        2.9140347849       -3.4158817684
 H          0.6525167076        1.7296794125       -2.1205528902
 C         -1.2467775068        2.7236572558       -2.1446302076
 H         -1.6895036979        2.1069166479       -2.9322735917
 H         -1.6376037564        3.7395191248       -2.2408762821
 H          0.6062738980        5.2886132421        0.8590561585
 H          0.4220590306        3.8609881553        1.8895688218
 H         -1.7742390890        4.6246092075        1.3221316531
 H         -1.3800121086        4.7366147142       -0.4045323189
 O         -2.0556634426        2.2029593909        1.4997734567
 C         -2.4933293318        0.8904518493        1.5461182751
 O         -2.7926114853        0.4864953258        2.6909814059
 O         -2.1910369360        0.0745191178       -1.9675961857
 C         -3.0338646608       -1.2736349678        0.4342934774
 C         -1.9082873111       -2.1834876984        0.0040829893
 C         -2.0778711012       -3.2932989296       -0.8125569752
 C         -0.9919284018       -4.0739245233       -1.1748407302
 C          0.2847527915       -3.7587963149       -0.7464606701
 C          0.4606012971       -2.6587817778        0.0825685013
 C         -0.6285762784       -1.8985402991        0.4659459390
 H         -0.4722308206       -1.0468983497        1.1166658573
 N          1.7749996901       -2.2752708408        0.4859310511
 S          2.0580575461       -0.6189783702        0.5024081370
 O          1.7406941622       -0.0373574816        1.7938906476
 O          1.4196448917       -0.0475651581       -0.6537637990
 C          3.8265215524       -0.6111304712        0.2742827525
 C          4.6639337709       -0.3517610880        1.3411187151
 C          6.0356248503       -0.3902499021        1.1427903559
 C          6.5432134890       -0.6890158549       -0.1121436759
 C          5.6894932128       -0.9465376548       -1.1748235802
 C          4.3180981972       -0.9086957978       -0.9822390561
 H          3.6142734081       -1.0942038313       -1.7770209303
 H          6.0872137974       -1.1764727464       -2.1501750336
 H          7.6106431214       -0.7194042712       -0.2637968996
 H          6.7009082064       -0.1878131049        1.9667243288
 H          4.2239138488       -0.1172333930        2.2972366241
 H          2.0754349639       -2.7006922090        1.3517913524
 H          1.1386273015       -4.3446435183       -1.0451092913
 H         -1.1428382862       -4.9298431483       -1.8148329013
 H         -3.0621549844       -3.5423443193       -1.1748843318
 H         -3.2383790708       -1.4679466336        1.4984563478
 C         -4.3107441251       -1.4753334104       -0.3542341606
 C         -5.2994652434       -2.5205470400        0.0649731587
 C         -5.6130138946       -1.0691971790        0.2653365454
 H         -6.3608828309       -0.6085536333       -0.3622042384
 H         -5.5791457127       -0.6696185613        1.2688268284
 H         -5.8382041990       -3.0571136924       -0.7012686625
 H         -5.0638245871       -3.1110322485        0.9375157364
 H         -4.1780345688       -1.2852246625       -1.4128244103
