  62
        -98.94761794
 C         -1.8252950597       -1.3481572896       -0.1012316309
 C         -2.9386040099       -0.6371692400        0.4112073292
 C         -3.2632496500        0.6267405202       -0.2563412902
 C         -2.5132385999        1.0453980908       -1.2914674399
 C         -2.6973158399        2.3258196111       -2.0586264094
 C         -2.0237126802        3.5307084809       -1.3869421687
 C         -2.7426542705        4.0646167102       -0.1472384086
 H         -3.7984148705        4.2194107802       -0.3747254187
 H         -2.3090181307        5.0409758402        0.0784440519
 C         -2.6040360906        3.1701890597        1.0928263510
 H         -2.3644228808        3.7889849593        1.9614993114
 H         -1.7608087904        2.4877730699        0.9544846809
 C         -3.8585916305        2.3682776494        1.4426818505
 H         -4.6611842207        3.0527530791        1.7280310906
 H         -3.6299600906        1.7385527190        2.3065916402
 C         -4.3696244802        1.4597415798        0.3169687800
 H         -4.8407215302        2.0567097801       -0.4636466598
 H         -5.1150034702        0.7804291495        0.7386227395
 H         -1.9694190402        4.3333233113       -2.1265242483
 H         -1.0019250102        3.2517108109       -1.1152092987
 H         -3.7597041899        2.5278988910       -2.1985267494
 H         -2.2374169398        2.1739744116       -3.0374901294
 O         -1.4731534297        0.3222355412       -1.7757723301
 C         -1.0649580396       -0.8505003891       -1.1602619105
 O         -0.0385207995       -1.3485909887       -1.6621351706
 O         -3.6196129400       -1.0353536606        1.3954513590
 C         -1.3644078197       -2.5831284799        0.6544669586
 C          0.1094990603       -2.4485342398        0.9489868389
 C          1.0538367205       -3.4353270296        0.7003372786
 C          2.3943940204       -3.2060228695        0.9633318690
 C          2.8245778901       -1.9836049997        1.4451766196
 C          1.8853768399       -0.9903503599        1.6980581499
 C          0.5418794400       -1.2416229500        1.4866653695
 H         -0.1739143401       -0.4584852902        1.6932044498
 N          2.2591956797        0.2992012599        2.1384257705
 S          2.0333248997        1.5311351204        1.0177778910
 O          2.4835248194        2.7362503802        1.6822090517
 O          0.6714092598        1.5311085604        0.5534386208
 C          3.1751008900        1.1225664212       -0.2909117490
 C          2.8317186103        0.1605480715       -1.2193488994
 C          3.7728566005       -0.2100805879       -2.1690268595
 C          5.0277592204        0.3782648723       -2.1733431290
 C          5.3548609301        1.3443651919       -1.2332123385
 C          4.4233028899        1.7166265114       -0.2783860485
 H          4.6299551096        2.4632131510        0.4716017819
 H          6.3302115600        1.8037044621       -1.2392195181
 H          5.7537407605        0.0822652028       -2.9141854990
 H          3.5109398707       -0.9618795976       -2.8962019098
 H          1.8474920403       -0.2828248386       -1.2047300798
 H          3.2087416496        0.3490249199        2.4835772007
 H          3.8736001501       -1.7928615696        1.6159832898
 H          3.1168027005       -3.9827348493        0.7641618287
 H          0.7457796507       -4.3782818094        0.2794382882
 H         -1.9073418998       -2.5290486504        1.6139897386
 C         -1.7463178294       -3.9105372797        0.0181559280
 C         -2.8844014292       -4.0022954694       -0.9528401723
 C         -1.4786174291       -4.2125082390       -1.4248757021
 H         -1.1741675889       -5.2144733188       -1.6900110825
 H         -1.0128996391       -3.4399308087       -2.0154494817
 H         -3.5435060991       -4.8553618295       -0.8911681528
 H         -3.3830308393       -3.0833521994       -1.2261318219
 H         -1.6476347493       -4.7376594800        0.7146139676
