  62
        -98.93614816
 C         -1.3415439116       -1.6362072667        0.1975316260
 C         -2.3075474713       -1.1304026479        1.0998067781
 C         -3.2159351766       -0.1110989591        0.5663114134
 C         -3.0873282697        0.2918763124       -0.7114538718
 C         -3.9985048665        1.2535397739       -1.4268901877
 C         -3.6767887128        2.7371337128       -1.2057448399
 C         -3.9855200002        3.2736975882        0.1919333329
 H         -3.8990934485        4.3611492690        0.1456554764
 H         -5.0192451503        3.0426431369        0.4508699747
 C         -3.0483969490        2.7475174460        1.2882216013
 H         -2.1593735030        2.3082834798        0.8293138085
 H         -2.7110065730        3.5781611657        1.9122419018
 C         -3.6877014190        1.7138071513        2.2153365195
 H         -2.9334206194        1.3788514927        2.9323775230
 H         -4.5012485793        2.1776916624        2.7776817800
 C         -4.2373844887        0.4772750167        1.4920625309
 H         -5.1451508259        0.7339913975        0.9461155388
 H         -4.4824304617       -0.2790216497        2.2419986920
 H         -2.6220546983        2.8990653645       -1.4288337183
 H         -4.2653477114        3.3074701773       -1.9280994550
 H         -5.0298435459        1.0575994595       -1.1304031347
 H         -3.8988018172        1.0369406650       -2.4926541983
 O         -2.1145774812       -0.1827679907       -1.5318568962
 C         -1.2145996446       -1.1534320108       -1.1062023537
 O         -0.3806170543       -1.4833364576       -1.9650795825
 O         -2.4127595666       -1.5247908114        2.2939391815
 C         -0.4217045314       -2.7480698281        0.6891057865
 C          1.0085872710       -2.3665132643        0.4028292838
 C          1.8907650122       -2.9703161425       -0.4823619975
 C          3.1764128602       -2.4788923364       -0.6464609700
 C          3.6157711036       -1.3700404602        0.0494897883
 C          2.7356003472       -0.7368163183        0.9185446904
 C          1.4592914401       -1.2423550212        1.0942543103
 H          0.7808889632       -0.7446944142        1.7772455687
 N          3.1523298259        0.4207221413        1.6111154657
 S          3.6008233659        1.7376700460        0.6777012186
 O          4.8082648776        1.4133922128       -0.0375496488
 O          3.6818065279        2.8482713817        1.5987947047
 C          2.2576636125        1.9902648445       -0.4678443488
 C          2.1814714265        1.2102824111       -1.6047690592
 C          1.1058117341        1.3784829679       -2.4613479894
 C          0.1369708859        2.3269584184       -2.1744338080
 C          0.2311734954        3.1077811707       -1.0322824069
 C          1.2951834902        2.9317002365       -0.1630051054
 H          1.4047521007        3.5165375832        0.7363613450
 H         -0.5180523472        3.8525833401       -0.8129266102
 H         -0.6953623493        2.4522157173       -2.8496892225
 H          1.0191756930        0.7582498447       -3.3384440197
 H          2.9562916819        0.4894451538       -1.8064934320
 H          2.4893516808        0.7225635789        2.3115478154
 H          4.6075826914       -0.9693371129       -0.0834545813
 H          3.8446819136       -2.9700031874       -1.3377886645
 H          1.5910044644       -3.8133231584       -1.0766102450
 H         -0.5333338400       -2.7260240274        1.7863768272
 C         -1.0040441107       -4.0863981600        0.2589178588
 C         -0.8763744479       -4.6932727311       -1.1034140270
 C         -0.2331120725       -5.3585447192        0.0787089688
 H         -0.6810750997       -6.2700709243        0.4465667569
 H          0.8391128120       -5.3331476392        0.1820136309
 H         -1.7559522469       -5.1547587652       -1.5296609735
 H         -0.2725499484       -4.1799205741       -1.8338189943
 H         -1.9830705509       -4.1980235960        0.7210681876
