  62
        -98.93954342
 C          2.3756213791        1.2639478096        0.0139803398
 C          3.1604884291        0.5585582297        0.9535454099
 C          3.9266974389       -0.5911083505        0.4432851601
 C          3.8262936188       -0.9273999008       -0.8565634398
 C          4.5146870686       -2.0149710110       -1.6545286996
 C          5.1839462885       -3.1948479710       -0.9533489794
 C          4.2302766285       -4.1201843907       -0.1992852891
 H          3.5950391084       -4.6347796108       -0.9248586589
 H          4.8268235184       -4.8762353206        0.3159684410
 C          3.3132052386       -3.4386240803        0.8136499008
 H          2.6187025987       -2.7762253704        0.2911011207
 H          2.7112766386       -4.2150574902        1.2943266810
 C          4.0239980088       -2.6511158102        1.9135413106
 H          3.2710486989       -2.3727646799        2.6559701106
 H          4.7576769488       -3.2914300801        2.4064991406
 C          4.7244144389       -1.3576371403        1.4584828502
 H          4.8225368790       -0.7034074801        2.3295587200
 H          5.7257836489       -1.5583132305        1.0854397702
 H          5.9716428686       -2.8449226009       -0.2927509196
 H          5.6659571584       -3.7865960012       -1.7362732693
 H          3.7578570785       -2.3937527211       -2.3489328295
 H          5.2673560886       -1.5056847213       -2.2666708898
 O          3.0428381788       -0.2222880609       -1.7249545799
 C          2.2961767889        0.8734355693       -1.3214675801
 O          1.6213873889        1.3970115291       -2.2275245002
 H          0.2344726690        0.2246897301        1.0647892702
 C         -0.4274974409        0.9550967400        0.6146443801
 C          0.0869430492        2.1903457699        0.2395618097
 C         -0.7738121108        3.1162946798       -0.3342689904
 C         -2.1064034408        2.8011794499       -0.5383680602
 C         -2.6106782209        1.5673692801       -0.1715744399
 C         -1.7596604710        0.6345798801        0.4070444202
 N         -2.2614357611       -0.6201564697        0.7966967206
 S         -3.1612272713       -1.4974437399       -0.3185493091
 O         -3.0051327114       -2.8798701198        0.0801179612
 O         -2.7931666913       -1.1738373803       -1.6773425193
 C         -4.8360731512       -0.9866815796        0.0051917009
 C         -5.6023025212       -0.4474611598       -1.0093413392
 C         -6.9026211911       -0.0554925296       -0.7306863692
 C         -7.4107560910       -0.2102943492        0.5499674609
 C         -6.6292276010       -0.7574076691        1.5568222910
 C         -5.3290226511       -1.1516339393        1.2848500209
 H         -4.6898155211       -1.5842892792        2.0361967410
 H         -7.0280598910       -0.8770642888        2.5512269810
 H         -8.4220452810        0.0971608109        0.7645309109
 H         -7.5115888111        0.3692365103       -1.5124549392
 H         -5.1624104813       -0.3416248401       -1.9884578493
 H         -1.5689843411       -1.2125900197        1.2320928307
 H         -3.6455058009        1.3164550201       -0.3369155598
 H         -2.7621403108        3.5282781899       -0.9924630204
 H         -0.3995942507        4.0815337497       -0.6328675707
 C          1.5541028292        2.4523809298        0.4783839396
 H          1.7180297293        2.5147659700        1.5647691995
 C          2.0570138693        3.7277231696       -0.1639999308
 C          1.9162773595        5.0393800698        0.5473513589
 C          3.2646781994        4.3998020496        0.4150219990
 H          3.9831788194        4.8393590093       -0.2603522712
 H          3.7085251195        3.9504945097        1.2914674290
 H          1.7110828196        5.9233422496       -0.0373393313
 H          1.4464276096        5.0328028500        1.5191122190
 H          1.9614308192        3.7138369793       -1.2440249008
 O          3.2205089492        0.8737004300        2.1732638398
