  62
        -98.93500543
 C         -2.5064437006       -0.8675374916        0.6730336996
 C         -2.8228670000        0.4210899878        1.1763816639
 C         -4.2031181355        0.8767727770        0.9839031852
 C         -5.0915079410        0.0665988792        0.3809698792
 C         -6.5436062999        0.3717096802        0.1309191886
 C         -6.7985893343        1.1910357014       -1.1416349693
 C         -6.3847564918        2.6610402331       -1.0624410123
 H         -6.8162078095        3.1623876930       -1.9310866319
 H         -6.8249244733        3.1136531541       -0.1734321544
 C         -4.8671369027        2.8928245809       -1.0628119086
 H         -4.3599917219        1.9926068151       -1.4179366221
 H         -4.6210499852        3.6946188514       -1.7626510257
 C         -4.2844825876        3.2834619548        0.2955676828
 H         -4.6845361007        4.2528268638        0.6012053937
 H         -3.2014217518        3.3838761111        0.1872989569
 C         -4.5550995558        2.2686964416        1.4141210134
 H         -3.9223248888        2.5219771456        2.2682453442
 H         -5.5987691888        2.3188083800        1.7239535362
 H         -6.2807529770        0.7110424386       -1.9752171343
 H         -7.8706846639        1.1478959475       -1.3471685085
 H         -7.0498053861       -0.5905206989        0.0280962926
 H         -6.9613691355        0.8942637564        0.9918937660
 O         -4.7589803607       -1.1711859504       -0.0670800363
 C         -3.4606425970       -1.6625145007        0.0358441821
 O         -3.3189057848       -2.7916256154       -0.4669066814
 O         -1.9862186651        1.1540009491        1.7697042765
 C         -1.0727447537       -1.3291944176        0.8549166359
 C         -0.2089113462       -0.9363624979       -0.3172072893
 C         -0.6405732135       -1.1123983792       -1.6278454821
 C          0.1748717140       -0.7572649830       -2.6865730364
 C          1.4391697866       -0.2431764347       -2.4587793448
 C          1.8817964027       -0.0648089729       -1.1536587231
 C          1.0497349376       -0.3973774173       -0.0931941783
 H          1.3960625753       -0.2410029959        0.9163971632
 N          3.1611327821        0.4716155146       -0.8951607825
 S          4.2143144791       -0.4296005152        0.0744002675
 O          4.5959487514       -1.6416213383       -0.6207913447
 O          3.6374460746       -0.6034867821        1.3809942647
 C          5.5964383354        0.6908382020        0.1601026381
 C          5.4664295863        1.8194627459        0.9466726126
 C          6.5211024739        2.7156988455        1.0101632678
 C          7.6810734893        2.4695931418        0.2900648949
 C          7.7965749879        1.3319062353       -0.4939747083
 C          6.7445644392        0.4316262752       -0.5629155604
 H          6.7923027934       -0.4689473520       -1.1536833184
 H          8.7005118190        1.1428312040       -1.0502565936
 H          8.5005940232        3.1688582817        0.3425095969
 H          6.4353406476        3.6006878900        1.6199251665
 H          4.5494452540        1.9658463017        1.4936109516
 H          3.6461012662        0.6946191048       -1.7561996184
 H          2.0783757540        0.0220351805       -3.2878308255
 H         -0.1724244061       -0.8950819376       -3.6996442257
 H         -1.6154106204       -1.5408182949       -1.8070891373
 H         -0.7047359806       -0.7681561180        1.7294151375
 C         -0.9492299029       -2.8100478659        1.1871025038
 C         -0.3845952206       -3.8226812107        0.2413263431
 C          0.3987549718       -3.4140814703        1.4506838764
 H          0.4979794989       -4.1164026269        2.2646789025
 H          1.2695185559       -2.7910443312        1.3018273393
 H         -0.8437205673       -4.7990691472        0.2210099566
 H         -0.0440953041       -3.4846314037       -0.7249704759
 H         -1.7631126718       -3.1500721692        1.8195842221
