  62
        -98.94665465
 C         -1.1840779503       -1.3669142902        0.2749338898
 C         -1.3669859299       -0.3147560103       -0.6550695903
 C         -2.3539704897        0.7055113000       -0.2765926706
 C         -2.9468068299        0.6575434203        0.9290931893
 C         -3.9557549397        1.6371198306        1.4636976691
 C         -5.3970125997        1.3409893310        1.0263312489
 C         -5.7048516494        1.6480700409       -0.4398831412
 H         -6.7896473994        1.6026857411       -0.5552242713
 H         -5.3966580192        2.6686161108       -0.6691461112
 C         -5.0620139696        0.6766786006       -1.4399085710
 H         -4.7517128399       -0.2314737294       -0.9179535908
 H         -5.8036535295        0.3784086707       -2.1844783510
 C         -3.8630278493        1.2463947202       -2.1988302709
 H         -4.1905048890        2.0755402402       -2.8299469110
 H         -3.4689571094        0.4629534500       -2.8511653407
 C         -2.7198615293        1.7373254400       -1.3001193208
 H         -1.8408905092        1.9117918897       -1.9246941707
 H         -3.0000539491        2.6729077801       -0.8179046009
 H         -5.6175073600        0.2912009410        1.2333077190
 H         -6.0587963497        1.9476156712        1.6488511288
 H         -3.9065962699        1.5731517408        2.5528122491
 H         -3.6891805894        2.6497808405        1.1601345690
 O         -2.6688096803       -0.3142127997        1.8372079995
 C         -1.8249263005       -1.3625255799        1.5190233797
 O         -1.7188914708       -2.2206852798        2.4178235898
 H          1.2780249800       -0.8772469911       -1.4004702699
 C          1.8137854098       -1.3237959611       -0.5759062198
 C          1.1572170194       -2.2218053608        0.2539084402
 C          1.8507372992       -2.7585177109        1.3321840404
 C          3.1687265092       -2.4074337412        1.5707417505
 C          3.8191688096       -1.5088602115        0.7433392105
 C          3.1287181299       -0.9605957814       -0.3293040796
 N          3.7670728202        0.0046067783       -1.1452917997
 S          3.9877451805        1.4899047284       -0.4032871598
 O          4.4507775809        2.3868780681       -1.4368754999
 O          4.8633963503        1.3110341583        0.7267406103
 C          2.3689759606        1.9906422988        0.1581172799
 C          1.6492178809        2.8958948089       -0.5948183703
 C          0.3829556609        3.2639933793       -0.1715223005
 C         -0.1468727094        2.7071829496        0.9816306995
 C          0.5802781303        1.7844042795        1.7166228197
 C          1.8534614903        1.4238524191        1.3070692099
 H          2.4498949200        0.7212989990        1.8664035301
 H          0.1572606801        1.3389878097        2.6039137297
 H         -1.1322080693        2.9915345899        1.3142243193
 H         -0.1881120188        3.9786741994       -0.7419144607
 H          2.0988314711        3.3033069887       -1.4862390603
 H          3.2773705004        0.1539321083       -2.0177862297
 H          4.8355284896       -1.2019489017        0.9288087806
 H          3.6935920890       -2.8338465912        2.4122058007
 H          1.3427040089       -3.4424554207        1.9966928004
 C         -0.2905327106       -2.5710816305        0.0122399301
 H         -0.5813938809       -3.3226849203        0.7580002401
 C         -0.4952907106       -3.1631623106       -1.3688465999
 C         -0.0696402409       -4.5767239807       -1.6222570897
 C         -1.5269569408       -4.2313187703       -1.5630508699
 H         -2.0977883007       -4.2359078103       -2.4795522100
 H         -2.0911074110       -4.5464082601       -0.6970186699
 H          0.3631239392       -4.8209236510       -2.5802309996
 H          0.3541817788       -5.1271347007       -0.7958573195
 H         -0.3681652003       -2.4479086407       -2.1703646499
 O         -0.7607853198       -0.2110033606       -1.7547130303
