  62
        -98.94484156
 C         -1.0061906471       -1.1700444305       -0.2978786203
 C         -2.0571136347       -1.3455574545        0.6412332330
 C         -2.9450378296       -0.1972604751        0.8561247921
 C         -2.7131509100        0.9427524016        0.1807215682
 C         -3.5686513429        2.1730832323        0.2570634258
 C         -4.6689330239        2.1512838411       -0.8132343583
 C         -5.4566935510        0.8422807239       -0.8639613724
 H         -4.7919147557        0.0384568721       -1.1885801638
 H         -6.2243885236        0.9535738090       -1.6329267530
 C         -6.1173423750        0.4469079266        0.4640809857
 H         -7.1407471976        0.1227005556        0.2634251826
 H         -6.1762329215        1.3147187570        1.1218708913
 C         -5.4231309768       -0.7004154185        1.2004330574
 H         -5.2793319286       -1.5407176300        0.5164444202
 H         -6.0855757385       -1.0409514796        2.0008162405
 C         -4.0701019235       -0.3617484361        1.8389999997
 H         -3.7868916130       -1.2009316219        2.4809514996
 H         -4.1709346546        0.5289445061        2.4622286439
 H         -4.2050538763        2.3082000792       -1.7896815148
 H         -5.3523414763        2.9810563348       -0.6238479645
 H         -4.0126489706        2.2397445711        1.2482316276
 H         -2.9331789708        3.0432522610        0.0908242349
 O         -1.6913778470        1.0823910101       -0.6979435197
 C         -0.8166752162        0.0389826262       -0.9688251707
 O          0.0538361313        0.3351677590       -1.8107279885
 H          1.7142968490       -0.3515142488       -0.3726793662
 C          1.9486920290       -1.1463479684        0.3165623680
 C          1.1326331608       -2.2674405192        0.3744321876
 C          1.4590602894       -3.2901408362        1.2568623033
 C          2.5816822661       -3.1922848811        2.0597848652
 C          3.3933318977       -2.0745149550        2.0004518104
 C          3.0703455370       -1.0414627155        1.1256841200
 N          3.8398933026        0.1242596323        1.0927926995
 S          3.8251847892        1.2038654710       -0.1745327017
 O          3.9022570743        0.5372538999       -1.4531449944
 O          4.9299099193        2.0942974146        0.1241474686
 C          2.3097775662        2.1217091483       -0.0057613847
 C          1.7854991216        2.7284416190       -1.1282722434
 C          0.6528597381        3.5154917222       -0.9993026667
 C          0.0655620003        3.6782155705        0.2443517146
 C          0.5971041155        3.0530326894        1.3612568351
 C          1.7341587022        2.2710649657        1.2398648582
 H          2.1686110087        1.7712548925        2.0901362748
 H          0.1281126539        3.1701148301        2.3254162534
 H         -0.8143534695        4.2947302114        0.3437515573
 H          0.2281721070        3.9870439526       -1.8709967961
 H          2.2600823193        2.5597438742       -2.0815963113
 H          4.7033218707        0.1174181902        1.6128230657
 H          4.2668625630       -1.9941998829        2.6289007390
 H          2.8270604258       -3.9933605800        2.7403048261
 H          0.8200798252       -4.1583914595        1.3198529982
 C         -0.0899603199       -2.3636434926       -0.5073081636
 H         -0.6714188124       -3.2357775403       -0.1771837625
 C          0.3251566439       -2.5840649792       -1.9484663585
 C          0.6854590874       -3.9669118872       -2.3987651154
 C         -0.5878768317       -3.3322966501       -2.8704775006
 H         -0.6586619228       -3.0093588596       -3.8982073491
 H         -1.5195591685       -3.6967943517       -2.4623659742
 H          0.6145516667       -4.7654109773       -1.6757526276
 H          1.4952195877       -4.0820114089       -3.1029131941
 H          0.8873859493       -1.7581071700       -2.3653203967
 O         -2.2463562047       -2.4234706586        1.2668543392
