  62
        -98.93535969
 C          2.2122402949        1.0901584317       -0.0213618470
 C          2.9317316476        0.4561268978        1.0219581066
 C          3.8010221000       -0.6794646715        0.6609793253
 C          3.8497677296       -1.0678946348       -0.6264155185
 C          4.6861083396       -2.1577442703       -1.2421291660
 C          6.1605718782       -1.7526397027       -1.4032971454
 C          6.7661676058       -1.0345468122       -0.2000422282
 H          7.7695914963       -0.7045878311       -0.4816133271
 H          6.1795518920       -0.1397243108        0.0157262393
 C          6.8905809897       -1.8775415235        1.0667931703
 H          7.5114723347       -2.7510998661        0.8559990624
 H          7.4129555896       -1.2702598558        1.8103413511
 C          5.5749803373       -2.3555256398        1.6848343001
 H          5.8025152409       -2.7250983055        2.6890078589
 H          5.1647539037       -3.1971753138        1.1330752069
 C          4.5161923468       -1.2700092545        1.8520735805
 H          4.9525482153       -0.4224632668        2.3927494546
 H          3.7249641898       -1.6528742382        2.5083303595
 H          6.2330697045       -1.0810099583       -2.2622518893
 H          6.7415403221       -2.6490622818       -1.6261949703
 H          4.5949312877       -3.0705726075       -0.6607823777
 H          4.2682792290       -2.3521617294       -2.2325486248
 O          3.1238944183       -0.4444348159       -1.5962629167
 C          2.2908636771        0.6312271484       -1.3355143830
 O          1.7001056883        1.0594593904       -2.3460219908
 O          2.8651276163        0.8360901040        2.2222678151
 C          1.3452288684        2.2746183534        0.3707104851
 C         -0.0723990634        1.8346412958        0.6320740040
 C         -0.6982353387        2.1065082865        1.8424605728
 C         -1.9921384147        1.6744513346        2.0783488548
 C         -2.6872293994        0.9673785725        1.1137669194
 C         -2.0679737958        0.6846508352       -0.0969108559
 C         -0.7715551595        1.1182145272       -0.3303362561
 H         -0.2927181272        0.8937160893       -1.2726419267
 N         -2.7668891461       -0.0318458516       -1.0874873650
 S         -3.3950382794       -1.5272394394       -0.6443543729
 O         -2.6304874364       -2.1235136407        0.4276598567
 O         -3.4839321868       -2.2863314652       -1.8726392356
 C         -5.0400529434       -1.1405169567       -0.0826299053
 C         -5.8873771428       -0.4867095727       -0.9558878970
 C         -7.1720620708       -0.1795522911       -0.5372047701
 C         -7.5863874737       -0.5323690159        0.7387122653
 C         -6.7249330465       -1.1918924778        1.6019583091
 C         -5.4377266313       -1.5008947684        1.1899081943
 H         -4.7306069229       -2.0071414995        1.8276944704
 H         -7.0487674941       -1.4657866296        2.5931988881
 H         -8.5867654239       -0.2918595302        1.0622366148
 H         -7.8447414221        0.3333054354       -1.2056267541
 H         -5.5265750362       -0.2347696208       -1.9391342631
 H         -2.2472319911       -0.1160806924       -1.9503227036
 H         -3.6942512093        0.6270457240        1.2916155677
 H         -2.4648643722        1.8902274954        3.0242179098
 H         -0.1566786225        2.6439484697        2.6070142611
 H          1.7649577990        2.6164903409        1.3299377671
 C          1.4451928922        3.4366994819       -0.6086868416
 C          0.3131606486        3.9045810537       -1.4688029097
 C          0.7534692668        4.7321680050       -0.3012981103
 H          1.2780889757        5.6571376368       -0.4859751643
 H          0.1081106821        4.7527254407        0.5639766240
 H          0.5526755116        4.2390185936       -2.4667583294
 H         -0.6315982867        3.3891375489       -1.4002273550
 H          2.4355928829        3.5073360967       -1.0474182870
