  62
        -98.93308769
 C         -2.4564509876       -0.9779481258        0.2439721480
 C         -3.0695879185        0.0210957962        1.0368046797
 C         -3.4027320173        1.2997481249        0.3796004451
 C         -3.0757840981        1.4617145407       -0.9158002315
 C         -3.2581910121        2.6817770875       -1.7786812250
 C         -2.2175292396        3.7715718125       -1.4769504963
 C         -1.9891543627        4.0464285819        0.0070659506
 H         -1.1702908831        4.7664081229        0.0867823384
 H         -1.6542769183        3.1269699726        0.4915451533
 C         -3.1903014977        4.6155065708        0.7592368795
 H         -3.5007364710        5.5474274353        0.2819389245
 H         -2.8528222079        4.8565379096        1.7704229538
 C         -4.4095734090        3.6971216166        0.8732582494
 H         -4.9840794972        3.6894437298       -0.0491012887
 H         -5.0628456260        4.1195747457        1.6421637861
 C         -4.0952455945        2.2691092960        1.3076422731
 H         -5.0323905789        1.7791440981        1.5985009018
 H         -3.4906499741        2.2963319415        2.2213701607
 H         -2.5252789275        4.6909483926       -1.9781671832
 H         -1.2626956056        3.4546181271       -1.9052160458
 H         -4.2671271554        3.0694838970       -1.6747466699
 H         -3.1290953665        2.3560923455       -2.8132693629
 O         -2.4523573675        0.4846303393       -1.6338519211
 C         -2.1107010850       -0.7400928783       -1.0872423532
 O         -1.5230439600       -1.5011226575       -1.8788484372
 O         -3.3187385895       -0.1376754915        2.2631296470
 C         -2.0652061428       -2.2795413620        0.9227455202
 C         -0.6233469959       -2.5863290923        0.6039730493
 C         -0.1869629752       -3.7609822780        0.0076238016
 C          1.1510983289       -3.9344480315       -0.3042203005
 C          2.0792178061       -2.9466456748       -0.0319677398
 C          1.6529940707       -1.7713406949        0.5705319637
 C          0.3179237299       -1.6059100591        0.8949569805
 H         -0.0110749012       -0.6792112885        1.3524352890
 N          2.5956692681       -0.7433271797        0.8310398133
 S          3.0578765458        0.1452978428       -0.5346870610
 O          2.1498253117        1.2601061062       -0.7188893069
 O          3.2207591231       -0.7530713742       -1.6476341174
 C          4.6516158047        0.7496004641       -0.0116476027
 C          4.8153569816        2.0800888643        0.3189980152
 C          6.0594828731        2.5156701369        0.7489766328
 C          7.1104897899        1.6167432322        0.8442318386
 C          6.9296121607        0.2825193103        0.5101824316
 C          5.6893068160       -0.1579666292        0.0781538508
 H          5.5035341777       -1.1824759951       -0.1981621790
 H          7.7494330293       -0.4135519469        0.5851713543
 H          8.0769287838        1.9580473119        1.1800548155
 H          6.2025336305        3.5523767766        1.0082636894
 H          3.9703773467        2.7433968762        0.2260311272
 H          2.2293197850       -0.0752990326        1.4981789126
 H          3.1162420950       -3.0600429981       -0.3007939929
 H          1.4721510837       -4.8490613120       -0.7793032071
 H         -0.8988727101       -4.5298551069       -0.2441780956
 H         -2.1346329674       -2.0533847755        2.0005970818
 C         -3.0105566794       -3.4421605802        0.6659824927
 C         -4.4498198400       -3.2036703564        0.3225783933
 C         -3.5203970733       -3.7775851640       -0.7023173122
 H         -3.6309129894       -4.8195069479       -0.9654373337
 H         -3.2015628060       -3.1520440159       -1.5209967006
 H         -5.1959723494       -3.8484723532        0.7619719308
 H         -4.7719968732       -2.1793123200        0.2026719207
 H         -2.8092231227       -4.2789858054        1.3277542608
