  62
        -98.94024053
 C         -2.4473391486       -0.9357792952       -0.0224126184
 C         -2.6338656682        0.4415458212        0.2466733233
 C         -4.0002536947        0.8370153432        0.6120356681
 C         -4.9673903040       -0.0945222117        0.6973928464
 C         -6.4009381215        0.1494853101        1.0845109694
 C         -7.2919596557        0.6134657428       -0.0758781866
 C         -7.0561437189        2.0505013304       -0.5422968196
 H         -7.8854174881        2.3134800697       -1.2019595573
 H         -7.0976172220        2.7213592730        0.3162779174
 C         -5.7376831878        2.2618029438       -1.2996344712
 H         -5.3468219366        1.2960583664       -1.6284684827
 H         -5.9245145082        2.8534941863       -2.1986722369
 C         -4.6552124425        2.9852545929       -0.4983741324
 H         -3.7553956555        3.0474639385       -1.1158754759
 H         -4.9821314664        4.0035588873       -0.2763976746
 C         -4.2775540868        2.2954291733        0.8191020090
 H         -3.3610593441        2.7551563069        1.1971115581
 H         -5.0687052272        2.4325018900        1.5559008737
 H         -8.3291795913        0.5275132440        0.2559946793
 H         -7.1542599360       -0.0699649681       -0.9168713793
 H         -6.7877806375       -0.8016839917        1.4563403693
 H         -6.4423748259        0.8813974219        1.8915595885
 O         -4.7388275241       -1.4134015660        0.4552552492
 C         -3.4846617843       -1.8625835294        0.0755405323
 O         -3.4194519757       -3.0916313471       -0.1320865095
 H          1.4172137720       -0.2796428798       -0.7116819494
 C          1.1668273103       -0.5219837220        0.3072284595
 C         -0.0520767501       -1.1015690268        0.6189346028
 C         -0.3271235249       -1.3990581266        1.9517317638
 C          0.5907601986       -1.1132661772        2.9431659869
 C          1.8097326278       -0.5389748251        2.6270534518
 C          2.0946337674       -0.2391896481        1.3008183709
 N          3.3117536653        0.3667570147        0.9498181111
 S          4.0266046092       -0.0469212027       -0.5220090766
 O          3.4329168696        0.7390386023       -1.5738357289
 O          3.9973787510       -1.4811602047       -0.7013141624
 C          5.6974144709        0.5061861622       -0.2313166210
 C          6.6606222360       -0.4088658475        0.1495927658
 C          7.9487764163        0.0384173614        0.3985559724
 C          8.2494461502        1.3856470248        0.2660560234
 C          7.2720663637        2.2922699595       -0.1173799683
 C          5.9825097096        1.8517370816       -0.3689838900
 H          5.1927007272        2.5169499893       -0.6772518491
 H          7.5100788423        3.3385523668       -0.2219908342
 H          9.2525893071        1.7310939494        0.4600979424
 H          8.7115988859       -0.6640079570        0.6935394451
 H          6.3828133318       -1.4474231897        0.2314882747
 H          3.9834522251        0.3674634991        1.7051252737
 H          2.5286541934       -0.3174855764        3.4012294783
 H          0.3597738763       -1.3468707665        3.9717822666
 H         -1.2766558276       -1.8559925376        2.1978235354
 C         -1.0786715059       -1.4462130603       -0.4328515667
 H         -1.1610217056       -2.5427923009       -0.4778504161
 C         -0.7223822114       -0.9305459025       -1.8115313238
 C          0.2141928833       -1.7048071276       -2.6878343356
 C         -1.2461451783       -1.6455614496       -3.0189995471
 H         -1.5591368392       -1.0601355059       -3.8704952339
 H         -1.8452343033       -2.5287438633       -2.8499896761
 H          0.9109862177       -1.1574822645       -3.3055841264
 H          0.6134449298       -2.6295929259       -2.2983971295
 H         -0.6760305953        0.1523876130       -1.8518113455
 O         -1.7117244216        1.2961737150        0.1900934593
