  62
        -98.94057888
 C         -1.9576964494       -0.8666669656        0.6906120560
 C         -1.8627924988       -0.1898064752       -0.5512163374
 C         -2.0712298741        1.2652401217       -0.5068664990
 C         -2.2559680960        1.8728463157        0.6777853033
 C         -2.5146566296        3.3398658810        0.8617657288
 C         -4.0182932413        3.6497015905        0.8408382355
 C         -4.7617239902        3.0242767881       -0.3394008072
 H         -4.7389532004        1.9368849479       -0.2378443808
 H         -5.8066274993        3.3329734309       -0.2656770189
 C         -4.2083037199        3.4146870976       -1.7168588710
 H         -3.5889099625        4.3077073929       -1.6273976003
 H         -5.0451285998        3.6630726076       -2.3728301157
 C         -3.4079918235        2.3127116994       -2.4137100441
 H         -3.9902614708        1.3879261509       -2.4237174494
 H         -3.2502963480        2.6118046943       -3.4532376902
 C         -2.0299849184        2.0074436056       -1.8125202553
 H         -1.4950230258        1.3530245917       -2.5071563780
 H         -1.4561477139        2.9307807626       -1.7084452558
 H         -4.1462013714        4.7334780753        0.8215619915
 H         -4.4612992954        3.2709533636        1.7648437175
 H         -2.1013070997        3.6413433889        1.8259621343
 H         -2.0057391049        3.8911738477        0.0732228194
 O         -2.2733009324        1.2003803580        1.8582117667
 C         -2.1176058602       -0.1754311523        1.8927260070
 O         -2.1391888118       -0.6620005518        3.0429181338
 H          0.6428498627       -1.2288513101        1.0809595202
 C          0.6734041561       -1.9854247380        0.3083604610
 C         -0.4753558605       -2.7113377233        0.0167976581
 C         -0.4146836038       -3.6828842786       -0.9723239173
 C          0.7630130813       -3.8943071815       -1.6690911726
 C          1.8896588668       -3.1373374346       -1.4084371278
 C          1.8412533011       -2.1705767801       -0.4092966507
 N          2.9701947813       -1.3888091904       -0.1025091801
 S          2.7204218361        0.1986524569        0.4171632526
 O          2.4475035811        0.1827294682        1.8341688116
 O          1.7471259841        0.8657388441       -0.4174341860
 C          4.3459880255        0.8766943233        0.1337027966
 C          4.5898403345        1.5928115984       -1.0228780230
 C          5.8650113302        2.0869871521       -1.2494570892
 C          6.8699560655        1.8545582044       -0.3225539994
 C          6.6100004418        1.1343542660        0.8340725525
 C          5.3369962904        0.6387997040        1.0673493156
 H          5.0837806294        0.0824186732        1.9546797176
 H          7.3928273235        0.9579095803        1.5538711975
 H          7.8612897611        2.2397582510       -0.5014196501
 H          6.0685285965        2.6500975040       -2.1459517869
 H          3.7744807335        1.7541444190       -1.7099400064
 H          3.6805782563       -1.4325263416       -0.8208868927
 H          2.7973323268       -3.2852503193       -1.9736028856
 H          0.7961913386       -4.6459169611       -2.4433292420
 H         -1.2950896601       -4.2523883404       -1.2207850912
 C         -1.7194557540       -2.3647079291        0.7980952903
 H         -1.5013868094       -2.5380234538        1.8658529515
 C         -2.9231870355       -3.2287080411        0.4550911470
 C         -4.3171393648       -2.6937890729        0.5895798854
 C         -3.7577093677       -2.9944506474       -0.7667382211
 H         -4.1402834670       -3.8546217503       -1.2966099326
 H         -3.4806939924       -2.1724463730       -1.4068604565
 H         -4.4269848346       -1.6590814555        0.8816997179
 H         -5.0795860234       -3.3441905337        0.9913783163
 H         -2.7771228469       -4.2618403500        0.7553877928
 O         -1.6265298426       -0.7603898916       -1.6474668741
