  62
        -98.93628624
 C         -1.6508990646       -1.2632423824        0.5442937517
 C         -1.3618420908       -0.3008945143       -0.4538347728
 C         -2.0080030778        1.0053861472       -0.2838552483
 C         -2.7492754642        1.2499928761        0.8104051040
 C         -3.4404044106        2.5446156385        1.1424870705
 C         -4.8096425237        2.7158456361        0.4696212780
 C         -4.7678808950        2.9943616484       -1.0334394250
 H         -5.7714248141        3.3075989830       -1.3280467790
 H         -4.0951814353        3.8304742953       -1.2265495218
 C         -4.3545477122        1.7893009159       -1.8896805874
 H         -4.4530890766        0.8744624783       -1.3008617447
 H         -5.0327705439        1.6980795591       -2.7408973808
 C         -2.9335419543        1.8669249665       -2.4476108691
 H         -2.8574414552        2.7074474291       -3.1406533491
 H         -2.7338592471        0.9486444932       -3.0050858234
 C         -1.8445138142        2.0172191877       -1.3770708298
 H         -0.8718730566        1.8457734885       -1.8444416744
 H         -1.8536845233        3.0255087587       -0.9630680952
 H         -5.3090061118        3.5547712641        0.9599111900
 H         -5.4043460113        1.8190089538        0.6583477096
 H         -2.7913560649        3.3803077154        0.8780524030
 H         -3.5839932061        2.5501209076        2.2254666007
 O         -2.9440861659        0.3206134935        1.7853976764
 C         -2.4063321569       -0.9500378277        1.6720414430
 O         -2.6627807999       -1.7049236386        2.6362116551
 O         -0.6044904812       -0.5123681978       -1.4341473567
 C         -1.0494088055       -2.6652496882        0.4689018239
 C          0.4325181462       -2.4948828145        0.2335604446
 C          1.2061536134       -2.9637047974       -0.8197914198
 C          2.5440345428       -2.6167529015       -0.9288826246
 C          3.1409221332       -1.7712827102       -0.0137302421
 C          2.3837776552       -1.3105071860        1.0543963182
 C          1.0656513120       -1.6995930894        1.1885203204
 H          0.4875112878       -1.3191626671        2.0231769959
 N          2.9564333487       -0.3501102211        1.9419314592
 S          2.4648045663        1.2034512924        1.4812604357
 O          3.1065775549        2.1081082596        2.4128479956
 O          1.0215364160        1.3076668997        1.4170268940
 C          3.1890323735        1.3632558525       -0.1326866885
 C          2.4580250736        0.9985400675       -1.2460530985
 C          3.0609277201        1.0817959792       -2.4919740977
 C          4.3713665633        1.5208563346       -2.6014617091
 C          5.0906816669        1.8817713571       -1.4717228106
 C          4.4965963171        1.8003175738       -0.2229016335
 H          5.0116927019        2.0704708990        0.6842096710
 H          6.1097944433        2.2222028989       -1.5598897834
 H          4.8341299241        1.5807365378       -3.5739569696
 H          2.4994044809        0.7949116134       -3.3665414208
 H          1.4426986009        0.6496759743       -1.1301593131
 H          2.6642192355       -0.4878482840        2.9013715791
 H          4.1671062249       -1.4583881770       -0.1154739738
 H          3.1186168885       -2.9893844637       -1.7626766100
 H          0.7784787932       -3.5773092355       -1.5912831309
 H         -1.1630021085       -3.0820654501        1.4841429434
 C         -1.9270684047       -3.5211322724       -0.4307177752
 C         -1.8429187865       -3.5730977556       -1.9238714742
 C         -1.5082932682       -4.7897472222       -1.1108275520
 H         -2.2155675323       -5.6061658862       -1.1157995646
 H         -0.4832282691       -5.1100322232       -1.0263040518
 H         -2.7712947240       -3.5705512824       -2.4770025796
 H         -1.0604309988       -3.0083514552       -2.4032303764
 H         -2.9352219919       -3.5237579299       -0.0198102094
