  62
        -98.93276693
 C         -1.8170013486       -0.7170300465        0.8126517081
 C         -2.2019971728        0.6362834413        0.6487854546
 C         -3.6374519103        0.9208725263        0.4618963425
 C         -4.5026344893       -0.1097486875        0.4681933678
 C         -5.9953434385       -0.0805851359        0.2711540442
 C         -6.3964463154        0.1218143366       -1.1984615975
 C         -5.6089154273        1.2020994460       -1.9348553843
 H         -5.9141237378        1.1776801249       -2.9843720388
 H         -4.5460305036        0.9560671540       -1.9013006411
 C         -5.8180353477        2.6244935055       -1.4205831804
 H         -6.8796932494        2.8744666908       -1.4800768546
 H         -5.2810582824        3.2947702367       -2.0966502102
 C         -5.3315633894        2.9003964846        0.0040625258
 H         -6.0326381473        2.5170605287        0.7406434758
 H         -5.3081317375        3.9862660673        0.1345416410
 C         -3.9242066780        2.3948061530        0.3051127963
 H         -3.5768314007        2.8612903888        1.2347486541
 H         -3.2385745644        2.7559063027       -0.4698758573
 H         -7.4621042175        0.3544307391       -1.2360956205
 H         -6.2385597269       -0.8227047173       -1.7249622048
 H         -6.4407175047        0.6827248231        0.9022899125
 H         -6.3734122499       -1.0497527042        0.6042083394
 O         -4.0898126777       -1.3979419244        0.6297739435
 C         -2.7576179831       -1.7471764176        0.7935174920
 O         -2.5740450965       -2.9722741682        0.9077413590
 O         -1.3720057656        1.5858833072        0.6614409033
 C         -0.3355288352       -0.9787636434        1.0060948419
 C          0.3704246033       -1.2341782606       -0.3006309958
 C         -0.1661394079       -2.0693543561       -1.2747363333
 C          0.5228317676       -2.3029281297       -2.4511855312
 C          1.7654810898       -1.7330868722       -2.6669926794
 C          2.3112042438       -0.8986179139       -1.6991602580
 C          1.6010666541       -0.6393066053       -0.5354372502
 H          2.0175333531        0.0312341950        0.1999813390
 N          3.5680040944       -0.3043367399       -1.8764345098
 S          4.6188181718       -0.2150173966       -0.5727409889
 O          5.9335451211       -0.1293300293       -1.1707673858
 O          4.4048321336       -1.3047858260        0.3495595805
 C          4.2330349490        1.3399822766        0.2012608750
 C          4.2660578014        2.4820042974       -0.5741679503
 C          3.9787464255        3.7009041352        0.0181965789
 C          3.6672102937        3.7572501250        1.3684052916
 C          3.6423307658        2.6020587220        2.1341747792
 C          3.9287229954        1.3795623077        1.5473994454
 H          3.9142408761        0.4566203819        2.1062414487
 H          3.3978340533        2.6469162848        3.1834389870
 H          3.4408280209        4.7066589054        1.8274819511
 H          3.9958824471        4.6023075979       -0.5729810758
 H          4.5155813343        2.3981754309       -1.6187089646
 H          4.0453009429       -0.5635889307       -2.7274972995
 H          2.3089105185       -1.9322428262       -3.5782432569
 H          0.0947973893       -2.9502910108       -3.2019450127
 H         -1.1208859944       -2.5411918267       -1.0963994206
 H          0.0642894765       -0.0340547888        1.4090671344
 C         -0.0408898650       -2.0634959985        2.0329796624
 C          0.4168100630       -3.4414083180        1.6735236331
 C          1.3712519139       -2.4840613741        2.3186028677
 H          1.6570448764       -2.6561439048        3.3457022948
 H          2.1630376333       -2.0781133300        1.7048733827
 H          0.0270432091       -4.2657467016        2.2508481431
 H          0.5571735018       -3.6748402945        0.6298156055
 H         -0.7049726336       -1.9924267793        2.8891513714
