  62
        -98.94006457
 C         -2.3384805303       -0.4572159395        0.3443263103
 C         -3.5186391002       -0.4923885202        1.1313718604
 C         -4.5210366800        0.5428794004        0.8491340118
 C         -4.2514944699        1.4804792015       -0.0769661070
 C         -5.2012379997        2.5602258223       -0.5058528455
 C         -6.0573557399        2.1036768840       -1.6956170660
 C         -6.7079195702        0.7341905939       -1.4994481677
 H         -5.9272916604       -0.0291224163       -1.4594369988
 H         -7.3100608004        0.5298124152       -2.3874028979
 C         -7.5891283401        0.6232337625       -0.2473192878
 H         -8.5205925803        0.1215241831       -0.5178946583
 H         -7.8504251498        1.6195090021        0.1111373836
 C         -6.9673298602       -0.1792472491        0.8972151812
 H         -6.6211645005       -1.1456773587        0.5214680799
 H         -7.7477153001       -0.3776605799        1.6366607110
 C         -5.8033593399        0.4983249497        1.6313948619
 H         -5.5871779400       -0.0909674915        2.5274434711
 H         -6.0996886897        1.5017571994        1.9436485432
 H         -5.4207458500        2.0561834650       -2.5822169462
 H         -6.8305913997        2.8534231244       -1.8725279250
 H         -4.6180933895        3.4335239225       -0.8026046745
 H         -5.8400105395        2.8295443913        0.3330612649
 O         -3.0851400399        1.5208147421       -0.7671413771
 C         -2.1013033002        0.5545718016       -0.5877679784
 O         -1.0990990202        0.7237323423       -1.3054074983
 O         -3.7224968703       -1.3509416513        2.0309219793
 C         -1.2984287505       -1.5331877001        0.6021581988
 C          0.0651730296       -0.9139812807        0.7708134395
 C          0.3202573099       -0.1537859422        1.9089204304
 C          1.5517633101        0.4422440473        2.1000891210
 C          2.5565232200        0.2950054582        1.1597357607
 C          2.3137112997       -0.4617957202        0.0224101198
 C          1.0767893995       -1.0663981897       -0.1632413309
 H          0.8954090493       -1.6347721485       -1.0624115116
 N          3.3241453195       -0.6005808393       -0.9427728705
 S          4.8623920595       -1.0446899303       -0.4490756412
 O          5.4638387092       -1.6762373989       -1.6036439621
 O          4.8219576294       -1.8303391618        0.7627889878
 C          5.6866212099        0.5041040591       -0.1451761993
 C          6.2752088801        0.7427812574        1.0811272309
 C          6.9243512004        1.9498310070        1.2896061524
 C          6.9742868005        2.8910703583        0.2729089036
 C          6.3797970503        2.6351208900       -0.9538744567
 C          5.7302954300        1.4301915804       -1.1688733682
 H          5.2593583998        1.1922038618       -2.1081209784
 H          6.4205575704        3.3694869210       -1.7422701058
 H          7.4797445107        3.8296655580        0.4370328547
 H          7.3873810405        2.1506326657        2.2424052626
 H          6.2077221200       -0.0167099235        1.8438212199
 H          3.0385073393       -1.1094689681       -1.7662241711
 H          3.5184718701        0.7611145678        1.2981809412
 H          1.7321993203        1.0303885761        2.9871792518
 H         -0.4665559200       -0.0319659729        2.6411259006
 H         -1.5930798605       -1.9661297513        1.5727035083
 C         -1.3202664709       -2.6776305788       -0.4003274027
 C         -2.6087588711       -3.1236351377       -1.0224812131
 C         -1.5559831510       -2.4727264169       -1.8658809524
 H         -1.0066559613       -3.0900827861       -2.5623941232
 H         -1.7206693608       -1.4651095464       -2.2137013011
 H         -2.7855277914       -4.1820367875       -1.1409153844
 H         -3.4970343609       -2.5558129178       -0.7866253623
 H         -0.6210454111       -3.4629942893       -0.1270896637
