  62
        -98.93434933
 C         -2.4470460104       -1.3141203703       -0.0658457000
 C         -2.2865954303       -0.0394102505       -0.6557951704
 C         -3.5074361403        0.7764913595       -0.8004675608
 C         -4.6854914303        0.2896792797       -0.3678648507
 C         -6.0827088103        0.8727646197       -0.4126415410
 C         -6.3019340103        2.3532296396       -0.7132234515
 C         -5.7931568503        3.3084731999        0.3660287982
 H         -5.9101053203        4.3306449898       -0.0003123422
 H         -6.4227621404        3.1982063203        1.2524283582
 C         -4.3450031104        3.1013625401        0.8031880084
 H         -4.1188255704        3.8425485803        1.5745349981
 H         -4.2359529504        2.1168365702        1.2627674287
 C         -3.3003140803        3.2494516897       -0.3013465016
 H         -2.3139341903        3.2311818598        0.1711720184
 H         -3.4172624602        4.2176206395       -0.7923319420
 C         -3.3135193102        2.1493388293       -1.3767626412
 H         -4.0556539402        2.3538869090       -2.1447856314
 H         -2.3324125102        2.1418112891       -1.8614827012
 H         -5.8762602502        2.6083701392       -1.6791179016
 H         -7.3827372803        2.4962328796       -0.7959378216
 H         -6.6258692503        0.2839883894       -1.1599444108
 H         -6.5346893204        0.6335606300        0.5550759891
 O         -4.7888388804       -0.9525312401        0.1907485998
 C         -3.6897014104       -1.7727291001        0.3668136501
 O         -3.9443801605       -2.8640620799        0.9148827005
 H          1.3892307396       -1.4731373704       -0.3320032597
 C          1.0364049396       -1.2095966901        0.6499701502
 C         -0.2556305504       -1.5171954699        1.0437173003
 C         -0.6722550305       -1.1519441195        2.3221608301
 C          0.1793989194       -0.4822695492        3.1778383799
 C          1.4609711795       -0.1533205593        2.7712744699
 C          1.8895505395       -0.5190012098        1.5014137300
 N          3.2047856196       -0.2284446400        1.0864675000
 S          3.4583263097        0.4392440395       -0.4465928902
 O          2.7493089497        1.6937625595       -0.5697887107
 O          3.1992661297       -0.5592524009       -1.4507635199
 C          5.2137654097        0.7453751895       -0.3498624802
 C          5.6689405297        2.0157929096       -0.0526191706
 C          7.0343926297        2.2345603896        0.0423990494
 C          7.9168731997        1.1838823995       -0.1575691802
 C          7.4452462797       -0.0860369006       -0.4556597398
 C          6.0813206797       -0.3108532006       -0.5527798898
 H          5.6687816897       -1.2773606407       -0.7903638195
 H          8.1345905397       -0.8998053306       -0.6132001894
 H          8.9789596997        1.3565428195       -0.0838247202
 H          7.4036400497        3.2214682897        0.2705081891
 H          4.9459881797        2.8039999697        0.0844796691
 H          3.6904194495        0.3394372903        1.7699163599
 H          2.1240605594        0.3823643709        3.4341898997
 H         -0.1581179506       -0.2039495988        4.1650428998
 H         -1.6806449605       -1.3967699193        2.6292688101
 C         -1.2448275404       -2.2184593802        0.1445197804
 H         -1.6224284104       -3.1040860900        0.6761159607
 C         -0.6647843403       -2.6586012107       -1.1820126894
 C          0.1308981797       -3.9253120607       -1.2641369689
 C         -1.2403250803       -3.8609768209       -1.8652569690
 H         -1.3339124102       -3.8463814713       -2.9407862890
 H         -2.0452439603       -4.3782229007       -1.3632120689
 H          0.9833256997       -3.9528210110       -1.9259366388
 H          0.2590808996       -4.4927422104       -0.3547277787
 H         -0.3624109803       -1.8261037009       -1.8076202196
 O         -1.1774820803        0.4052048994       -1.0544138205
