  62
        -98.94167845
 C          2.3793401639        1.2351691361        0.1696991275
 C          3.3001948241        0.5516258578        1.0040801706
 C          4.0915648454       -0.5064143011        0.3671171671
 C          3.8968665331       -0.7922425268       -0.9328259653
 C          4.6434173080       -1.8237574779       -1.7346159334
 C          4.0859872508       -3.2470664106       -1.5961041334
 C          4.3611530329       -3.9254835259       -0.2534545672
 H          4.1103603026       -4.9815456588       -0.3710032522
 H          5.4266378121       -3.8662727919       -0.0293160835
 C          3.5535862217       -3.3550105688        0.9209399674
 H          3.1303845757       -4.1758021925        1.5047574192
 H          2.7123893963       -2.7734801331        0.5346642828
 C          4.3622644858       -2.4835531650        1.8823823678
 H          3.6858928591       -2.1037500380        2.6524954028
 H          5.1239603424       -3.0923170161        2.3742485318
 C          5.0492974478       -1.2816165635        1.2209636512
 H          5.4067699297       -0.6152986911        2.0098241994
 H          5.9019879571       -1.6143019223        0.6295992443
 H          3.0085069446       -3.2199592581       -1.7774767381
 H          4.5392853318       -3.8525016772       -2.3844028313
 H          5.6965896292       -1.8152451736       -1.4521073372
 H          4.5604133943       -1.5227939206       -2.7811995181
 O          2.9782254847       -0.1402789374       -1.6923098289
 C          2.1796199416        0.8683738441       -1.1626325324
 O          1.3611304524        1.3362237484       -1.9747899995
 O          3.4513738059        0.8126786206        2.2275552179
 C          1.5359927039        2.3282928768        0.8025655651
 C          0.0813663652        2.1133964529        0.4678177137
 C         -0.6997758500        3.0321858046       -0.2190939533
 C         -2.0227519660        2.7462352749       -0.5086935643
 C         -2.5951390500        1.5498753447       -0.1183830726
 C         -1.8212971216        0.6208277440        0.5651260832
 C         -0.4988073404        0.9122610106        0.8584795002
 H          0.1068171205        0.1844052747        1.3862048707
 N         -2.3944298227       -0.5962891085        0.9766399028
 S         -3.2456841724       -1.4974645699       -0.1569743811
 O         -3.1925790675       -2.8579127005        0.3347304180
 O         -2.7531699944       -1.2803247011       -1.4974256602
 C         -4.9139615899       -0.8930498315       -0.0076005716
 C         -5.5827954994       -0.4375358998       -1.1267244584
 C         -6.8829865115        0.0234836310       -0.9889033426
 C         -7.4878096762        0.0198865126        0.2586491915
 C         -6.8031910176       -0.4438509166        1.3722661565
 C         -5.5038942428       -0.9072314403        1.2412603754
 H         -4.9384961677       -1.2780958949        2.0797040672
 H         -7.2768201308       -0.4449987253        2.3407234714
 H         -8.4987415390        0.3808092871        0.3634944925
 H         -7.4162799023        0.3839411009       -1.8538384981
 H         -5.0686133945       -0.4471332937       -2.0747888251
 H         -1.7561302307       -1.1898965011        1.4869835600
 H         -3.6228525881        1.3225924612       -0.3498785429
 H         -2.6167217566        3.4657083277       -1.0514107858
 H         -0.2656130505        3.9598412381       -0.5533344804
 H          1.6583590825        2.1680029550        1.8873643209
 C          2.0218491569        3.7419458905        0.5223766371
 C          3.4707066191        4.0200034593        0.2583083934
 C          2.4633904636        4.1909975406       -0.8370279700
 H          2.2143315273        5.1946797869       -1.1495145399
 H          2.4392569828        3.4671890583       -1.6361780136
 H          3.9122939483        4.9024681217        0.6963103597
 H          4.1415133328        3.1744686211        0.2082307440
 H          1.4973517207        4.4741108040        1.1286986292
