  62
        -98.93599773
 C         -2.3916218786       -1.0809084945       -0.0269930186
 C         -2.2768947895        0.2624100256       -0.4619584378
 C         -3.2004911765        1.2175027229        0.1682765254
 C         -4.0415718510        0.8082679135        1.1339857145
 C         -5.0152995222        1.6711804149        1.8894901356
 C         -6.3499848992        1.8880558064        1.1632009682
 C         -6.2879744032        2.8206020421       -0.0471875551
 H         -7.3178714356        3.0540929061       -0.3244022110
 H         -5.8083564886        3.7565239260        0.2409114945
 C         -5.5713235659        2.2268147172       -1.2679763446
 H         -5.4996078587        1.1423414033       -1.1560923698
 H         -6.1638121403        2.4165849748       -2.1658936685
 C         -4.1735091468        2.7922996537       -1.5197171099
 H         -4.2469886450        3.8544638860       -1.7633936742
 H         -3.7462581269        2.2774654153       -2.3841102788
 C         -3.2036064446        2.6272216546       -0.3423466921
 H         -3.4612956389        3.3210615437        0.4573151572
 H         -2.1949554232        2.8558844972       -0.6947482005
 H         -7.0491980576        2.3130569211        1.8869545666
 H         -6.7416432556        0.9158962147        0.8548629939
 H         -5.2159817388        1.1587613257        2.8328152557
 H         -4.5577347039        2.6362628269        2.1087214053
 O         -4.0873432163       -0.4819919489        1.5602249860
 C         -3.2913196488       -1.4520878079        0.9776025872
 O         -3.4717366618       -2.5992536827        1.4330095011
 O         -1.4532472282        0.6688227151       -1.3226737426
 C         -1.5626767112       -2.2177811202       -0.6044351972
 C         -0.2211096962       -2.3097351197        0.0757870758
 C          0.2058948270       -3.4946185640        0.6619601941
 C          1.4456652819       -3.5692176774        1.2736139189
 C          2.2819001295       -2.4681452804        1.3128748159
 C          1.8633763183       -1.2785693178        0.7298888898
 C          0.6205497983       -1.2062508815        0.1176710362
 H          0.2979666328       -0.2834966272       -0.3428380676
 N          2.6995896019       -0.1410039236        0.7697192730
 S          4.2606912514       -0.3637015607        0.1570664947
 O          4.1965405820       -0.9496893366       -1.1642797481
 O          5.0306591916       -1.0952540918        1.1312141514
 C          4.8421356019        1.3171673736        0.0678313068
 C          4.7605114535        2.0003359420       -1.1303265165
 C          5.1995831895        3.3140052492       -1.1833547716
 C          5.7061867946        3.9188594200       -0.0429365967
 C          5.7794961628        3.2201696349        1.1530900539
 C          5.3436334179        1.9062072824        1.2127553244
 H          5.3898232403        1.3212089660        2.1163325252
 H          6.1755027744        3.6939804958        2.0367743048
 H          6.0484078622        4.9407356086       -0.0877237855
 H          5.1452518795        3.8587888823       -2.1121658761
 H          4.3676939565        1.4881869518       -1.9943630637
 H          2.2626337434        0.6391577066        0.2945211355
 H          3.2545757241       -2.5181976439        1.7744329754
 H          1.7660078169       -4.4961486051        1.7251340080
 H         -0.4439646827       -4.3576343867        0.6437970708
 H         -2.1222378873       -3.1327190437       -0.3546497692
 C         -1.4592000784       -2.1525195817       -2.1240222171
 C         -0.1805219749       -1.9370944033       -2.8719751571
 C         -0.8297180103       -3.2863262918       -2.8781603033
 H         -1.3020061840       -3.6348340296       -3.7840879292
 H         -0.3593159303       -4.0652763145       -2.2966169235
 H         -0.2233578513       -1.3353907177       -3.7673159829
 H          0.7359030280       -1.8163773171       -2.3148365951
 H         -2.3468155773       -1.7134791427       -2.5685201317
