  62
        -98.93305792
 C         -2.1514025126       -1.0208501906        0.2038984448
 C         -2.5105360188        0.0453103412        1.0612864010
 C         -2.6184628220        1.3862990381        0.4595037497
 C         -2.3673503235        1.5309805961       -0.8536833157
 C         -2.3759540590        2.7859690355       -1.6905693356
 C         -3.5084688113        3.7928087837       -1.4390694358
 C         -3.0447573993        5.0705336693       -0.7369384167
 H         -2.0686052148        5.3508565066       -1.1381215867
 H         -3.7418908679        5.8753066130       -0.9803577637
 C         -2.9564671554        4.9820772749        0.7855179854
 H         -2.4845114408        5.8998966358        1.1436454858
 H         -3.9640726532        4.9484187052        1.2053348762
 C         -2.1710552177        3.7854201393        1.3257641913
 H         -1.8376251321        4.0298415797        2.3368041915
 H         -1.2728394692        3.6123684429        0.7320501737
 C         -2.9986047630        2.4932596127        1.4044864468
 H         -4.0612456467        2.7205152631        1.2806285015
 H         -2.8963042279        2.0520111480        2.4008720345
 H         -4.3087257714        3.3172384071       -0.8747808408
 H         -3.9200634999        4.0744436690       -2.4096350600
 H         -1.4054609018        3.2754986787       -1.5700751819
 H         -2.4154645730        2.4329648731       -2.7238844813
 O         -2.0157389059        0.4774275699       -1.6431938277
 C         -1.8563431319       -0.8033513195       -1.1425835391
 O         -1.4776098295       -1.6321728603       -1.9914208378
 O         -2.7235289456       -0.1143389642        2.2953418281
 C         -1.9282585692       -2.3880742998        0.8274609199
 C         -0.5709585847       -2.8936131966        0.4058902674
 C         -0.3432244598       -4.1275394628       -0.1866878778
 C          0.9330502179       -4.4809637802       -0.5913530766
 C          1.9960291271       -3.6124157257       -0.4317182918
 C          1.7791387049       -2.3783298468        0.1728185317
 C          0.5097999960       -2.0431513584        0.6078319408
 H          0.3496885757       -1.0800125437        1.0728118777
 N          2.8371489613       -1.4707792600        0.3666579133
 S          2.4933168538        0.1807813944        0.2836274824
 O          1.9803418373        0.6103259392        1.5618452896
 O          1.6747507075        0.4800752008       -0.8700055430
 C          4.1406566884        0.8275884921        0.0602030945
 C          4.9588775530        0.9515493303        1.1673380539
 C          6.2518996098        1.4195147267        0.9955270238
 C          6.7031377719        1.7530007708       -0.2730534481
 C          5.8701213535        1.6250063868       -1.3742987847
 C          4.5759946534        1.1560958567       -1.2095426050
 H          3.8893086677        1.0462662637       -2.0338855468
 H          6.2219299015        1.8878990514       -2.3588514438
 H          7.7096058801        2.1175689254       -0.4042951385
 H          6.9014011237        1.5227819246        1.8496438979
 H          4.5595051686        0.6883748886        2.1327948645
 H          3.6523575177       -1.7023866343       -0.1852250829
 H          2.9837106651       -3.8798728295       -0.7753975367
 H          1.0969725680       -5.4397511608       -1.0595852123
 H         -1.1668575113       -4.8002366607       -0.3605712522
 H         -1.8909022903       -2.1862618660        1.9120692088
 C         -3.0538277242       -3.3873458566        0.6131552230
 C         -4.4522175057       -2.9247045808        0.3356909089
 C         -3.6705352160       -3.6280554478       -0.7309094648
 H         -3.9544073260       -4.6379095983       -0.9889549823
 H         -3.2938667869       -3.0520291976       -1.5609989439
 H         -5.2693884822       -3.4481389073        0.8089527774
 H         -4.6137251575       -1.8612034311        0.2330395757
 H         -2.9569986585       -4.2502906881        1.2650387678
