  62
        -98.93882207
 C          1.5378994346        1.4378252017       -0.2209810551
 C          1.4137445400        0.0904377772       -0.6291120688
 C          2.2769352007       -0.8920942410        0.0534425716
 C          3.0786964845       -0.4931953996        1.0565633541
 C          3.9968646569       -1.2748406609        1.9733767743
 C          4.4227208337       -2.6993760738        1.6266004708
 C          5.3114398277       -2.8196426702        0.3893804602
 H          6.2815878301       -2.3688684442        0.6129330350
 H          5.4753067580       -3.8809656114        0.1903505834
 C          4.7723512476       -2.1539388310       -0.8740503847
 H          5.4954866330       -2.3249168520       -1.6760789331
 H          4.7104780692       -1.0745458279       -0.7212730821
 C          3.4156677200       -2.6659520424       -1.3539065880
 H          3.4502077040       -3.7515828589       -1.4624449406
 H          3.2346877800       -2.2352702875       -2.3421519820
 C          2.2136635318       -2.3003142250       -0.4645032361
 H          1.3098514522       -2.3645089950       -1.0766700156
 H          2.0937452845       -3.0023732206        0.3576158532
 H          4.9949903342       -3.0683660988        2.4823151016
 H          3.5503116690       -3.3395902639        1.5331246091
 H          4.8901580097       -0.6543288344        2.0984513494
 H          3.4940865367       -1.2920945840        2.9472246306
 O          3.1309253500        0.8125759241        1.4531283357
 C          2.3846487862        1.7939024371        0.8310076773
 O          2.5648870065        2.9397783277        1.2930403937
 H         -1.1395370764        0.6837604146       -0.3679183693
 C         -1.4181018561        1.6277038139        0.0674483809
 C         -0.5813434215        2.7250349009       -0.0800377128
 C         -0.9633406230        3.9389394652        0.4773001860
 C         -2.1486570668        4.0445102111        1.1831450467
 C         -2.9538562664        2.9365195855        1.3713550429
 C         -2.5802914867        1.7159556843        0.8174713460
 N         -3.3742639903        0.5754330702        1.0067478945
 S         -2.7041761557       -0.9273194191        1.3635348729
 O         -3.5194595579       -1.4438822616        2.4465518907
 O         -1.2887536987       -0.8319668338        1.6228761564
 C         -3.0525821977       -1.8887745276       -0.0953580797
 C         -2.1170928196       -2.0097830266       -1.1020044726
 C         -2.4401061732       -2.7524448536       -2.2281805735
 C         -3.6832719316       -3.3559892555       -2.3306500197
 C         -4.6131903043       -3.2244025846       -1.3100514271
 C         -4.2971815793       -2.4847474043       -0.1829105443
 H         -4.9830792251       -2.3684815177        0.6398403996
 H         -5.5797383241       -3.6953370024       -1.3895477068
 H         -3.9267766320       -3.9323279741       -3.2093474553
 H         -1.7128650617       -2.8489738188       -3.0187054755
 H         -1.1550111822       -1.5297070665       -1.0081507849
 H         -4.1871886493        0.7353830344        1.5844206655
 H         -3.8628827919        3.0098710712        1.9494684190
 H         -2.4370400980        4.9927240249        1.6111553068
 H         -0.3153462159        4.7968362971        0.3736369008
 C          0.7335117980        2.5863817406       -0.8114271580
 H          1.3205188741        3.4936803467       -0.6102234940
 C          0.5102039737        2.4847509665       -2.3070886190
 C          0.2654220433        3.7376834820       -3.0908810969
 C          1.5606203154        2.9989509932       -3.2427798205
 H          1.7449946725        2.4557033694       -4.1571714858
 H          2.4493861076        3.4319877942       -2.8064842698
 H          0.2781174977        4.6751542031       -2.5557785143
 H         -0.4437681071        3.7048646942       -3.9034222255
 H         -0.0245477769        1.5921758230       -2.6019054835
 O          0.6207395450       -0.3101510748       -1.5229996459
