  62
        -98.93952202
 C         -2.1315868835       -0.9894032954        0.0271393528
 C         -2.9092155050       -0.3811701950        1.0375807334
 C         -3.6597707601        0.8286828758        0.6574058854
 C         -3.5551215728        1.3016259455       -0.5988131951
 C         -4.1601106193        2.5244409891       -1.2571924419
 C         -5.3003162360        3.2890353874       -0.5895994471
 C         -6.6215291793        2.5246206900       -0.5093856946
 H         -7.3256930679        3.1205042780        0.0752070915
 H         -7.0267322914        2.4267590171       -1.5196186925
 C         -6.5378094585        1.1232173341        0.0902501462
 H         -5.9078412693        0.4918641431       -0.5397031500
 H         -7.5426137179        0.6926062920        0.0746118909
 C         -6.0270185979        1.0567772349        1.5279865475
 H         -6.1645799996        0.0305415760        1.8789497857
 H         -6.6279789087        1.7106805313        2.1627814355
 C         -4.5435395526        1.4156546323        1.7204725221
 H         -4.4018657989        2.4917243535        1.7883482355
 H         -4.2114793904        0.9812381218        2.6681125371
 H         -5.4721750133        4.1819547774       -1.1968446647
 H         -4.9969828155        3.6333434378        0.3947471623
 H         -4.4821113946        2.1975269333       -2.2511055444
 H         -3.3255007418        3.2162748810       -1.4183815713
 O         -2.7622557136        0.6967919874       -1.5329220897
 C         -2.0423017381       -0.4544021730       -1.2565834170
 O         -1.3801037369       -0.8897245769       -2.2169523116
 O         -2.9663897275       -0.8217791623        2.2180278512
 C         -1.3441574608       -2.2451198762        0.3525972463
 C          0.1289221505       -2.0093350759        0.1246918530
 C          0.9521956744       -2.9017471164       -0.5488141018
 C          2.2935819051       -2.6141430827       -0.7350436789
 C          2.8440756880       -1.4421440231       -0.2509006413
 C          2.0310674448       -0.5446894232        0.4292620957
 C          0.6897420199       -0.8372698889        0.6175402365
 H          0.0573518367       -0.1331373908        1.1454311396
 N          2.5822182501        0.6455639248        0.9383731194
 S          3.4690396032        1.6123250676       -0.1121290523
 O          3.3705704917        2.9484881148        0.4356253572
 O          3.0430773178        1.4457127449       -1.4822551583
 C          5.1386777893        1.0262259813        0.0885304824
 C          5.8574031664        0.6033752696       -1.0123468466
 C          7.1571801944        0.1558506912       -0.8322216043
 C          7.7119485416        0.1401616954        0.4382924982
 C          6.9773984612        0.5707172634        1.5332790918
 C          5.6781846363        1.0201998028        1.3600652249
 H          5.0748084230        1.3663313142        2.1824622649
 H          7.4120367759        0.5571297787        2.5197757285
 H          8.7228631663       -0.2096640586        0.5758471047
 H          7.7294417240       -0.1788184858       -1.6824747162
 H          5.3816864096        0.6280271114       -1.9799965274
 H          1.9179751214        1.2071147783        1.4519213141
 H          3.8859861948       -1.2113206546       -0.4011245894
 H          2.9194998894       -3.3137297328       -1.2676132252
 H          0.5419342381       -3.8185902243       -0.9387302811
 H         -1.5005657745       -2.4179928130        1.4281011492
 C         -1.8965854341       -3.4270600846       -0.4160779065
 C         -1.8018045323       -4.8108087480        0.1517851009
 C         -3.1259891832       -4.1118937776        0.0987454553
 H         -3.8636221228       -4.4511542457       -0.6129732142
 H         -3.5486841001       -3.7416261251        1.0214128593
 H         -1.6321247021       -5.6348731758       -0.5245633835
 H         -1.3280691198       -4.9241195785        1.1150039262
 H         -1.8052050838       -3.3026763055       -1.4894589436
