  62
        -98.94031012
 C         -2.1966882082       -0.8855694453        0.2733923040
 C         -1.0842825048       -1.2256252407        1.0760568787
 C         -0.3366543041       -2.4359365005        0.6874485663
 C         -0.6780804661       -3.0877380162       -0.4356381815
 C          0.0303260377       -4.2597934813       -1.0549796952
 C          1.0595642754       -3.7742256574       -2.0905081274
 C          2.4472809255       -3.4764568077       -1.5252343094
 H          2.9250985606       -4.4142798039       -1.2319145047
 H          3.0387587876       -3.0428494498       -2.3351946350
 C          2.4735940680       -2.5123005602       -0.3357109345
 H          1.7886149884       -1.6841668554       -0.5267060007
 H          3.4774748083       -2.0845165783       -0.2758050768
 C          2.1461991502       -3.1916301401        1.0019264218
 H          2.8995646208       -2.9054050453        1.7384484870
 H          2.2300075105       -4.2714737714        0.8747053826
 C          0.7751666523       -2.8532906368        1.6118150833
 H          0.4281784301       -3.7096028115        2.1997884608
 H          0.8860495125       -2.0171871253        2.3079142945
 H          0.6622572889       -2.8719426095       -2.5640865468
 H          1.1644663622       -4.5347241034       -2.8674991123
 H         -0.7293122214       -4.8538284302       -1.5672862340
 H          0.5021664487       -4.8718284028       -0.2914399451
 O         -1.7254218042       -2.7023555363       -1.2141647923
 C         -2.5034685983       -1.6123156414       -0.8805253812
 O         -3.4414298295       -1.3904836596       -1.6747496814
 O         -0.6974800253       -0.5591051428        2.0752754719
 C         -3.0760123305        0.3333735144        0.5115493966
 C         -2.4943074466        1.5318204968       -0.2030218877
 C         -3.2873244825        2.3685424616       -0.9784829095
 C         -2.7234736167        3.4262682105       -1.6702571429
 C         -1.3569386565        3.6392499804       -1.6391066332
 C         -0.5552862424        2.8062846505       -0.8668876973
 C         -1.1353100322        1.7935683430       -0.1207064126
 H         -0.5095637146        1.1728281185        0.4957423360
 N          0.8431288244        2.9496709734       -0.8408234761
 S          1.8073377601        1.5963595605       -1.1547061161
 O          2.6811391910        1.9909356314       -2.2437198162
 O          0.9981092959        0.4253915841       -1.3813980930
 C          2.7986773281        1.4340892336        0.3178293546
 C          4.0493957154        2.0230072461        0.3229695994
 C          4.8387396824        1.9225709956        1.4566047815
 C          4.3673627085        1.2369741348        2.5659733488
 C          3.1110776104        0.6522763090        2.5460510137
 C          2.3153988579        0.7507941003        1.4148581689
 H          1.3361728931        0.3004467178        1.3868873452
 H          2.7369596764        0.1187280504        3.4055104208
 H          4.9808316371        1.1560412521        3.4495126869
 H          5.8163261857        2.3770027462        1.4713749567
 H          4.3803518332        2.5347210487       -0.5657123153
 H          1.1770020997        3.7286807273       -1.3914971057
 H         -0.9108064218        4.4363118178       -2.2152472499
 H         -3.3498349214        4.0727920426       -2.2662919813
 H         -4.3470160362        2.1746929848       -1.0555367775
 H         -4.0414271923        0.1040247988        0.0382911235
 C         -3.3229039890        0.6483488322        1.9735999483
 C         -4.5645906172        1.3915207871        2.3605406485
 C         -4.4221761837       -0.0605682201        2.7032883387
 H         -4.2590135017       -0.3384007700        3.7334488907
 H         -5.0099778763       -0.7761832583        2.1464556829
 H         -4.5009618602        2.1166138428        3.1571006926
 H         -5.2558330693        1.6597496484        1.5760722671
 H         -2.4163597379        0.8595183524        2.5243900037
