  62
        -98.94106996
 C          1.7338625875        1.0770841165        0.0269236545
 C          2.1584052328       -0.1089941839       -0.6219690365
 C          3.6120454557       -0.2535236881       -0.7950188909
 C          4.4437201843        0.7106357489       -0.3636669479
 C          5.9426216133        0.7153148452       -0.4941638910
 C          6.6668922064       -0.0566722868        0.6171993385
 C          6.5471626194       -1.5790780078        0.5362297164
 H          6.8337281574       -1.9126174639       -0.4616504282
 H          7.2717970660       -1.9949558567        1.2391188638
 C          5.1546494939       -2.1243835468        0.8832919391
 H          4.5847239585       -1.3581255761        1.4137708494
 H          5.2549571619       -2.9746407357        1.5616356260
 C          4.3407977413       -2.6002155745       -0.3203072388
 H          4.8350715223       -3.4585443723       -0.7809657732
 H          3.3600620583       -2.9268207949        0.0355940200
 C          4.1188366683       -1.5293731567       -1.3964653132
 H          5.0418242306       -1.3521241877       -1.9483863975
 H          3.3589842184       -1.8953250394       -2.0916541534
 H          6.2905103773        0.2873785792        1.5833168839
 H          7.7255701787        0.2066667295        0.5600485703
 H          6.2275421527        0.3107647988       -1.4657632139
 H          6.2554528242        1.7606714828       -0.4469453759
 O          3.9958862871        1.8379000314        0.2505236040
 C          2.6448194039        2.0308776517        0.4899736984
 O          2.3833824252        3.0763051507        1.1174528600
 H         -1.7459996557       -0.1691888856       -0.8274735149
 C         -1.4333757287       -0.5237966611        0.1395046176
 C         -0.4091757676        0.1077250132        0.8257938170
 C          0.0090457016       -0.4273942068        2.0418828657
 C         -0.5759228390       -1.5705181523        2.5496460610
 C         -1.6092386338       -2.1908207609        1.8688505255
 C         -2.0336900017       -1.6649223227        0.6551757667
 N         -3.0768445252       -2.2689868929       -0.0581146392
 S         -4.1236472797       -1.3512220827       -0.9734848893
 O         -5.3323561181       -2.1459394791       -1.0383106611
 O         -3.5345476686       -1.0085620618       -2.2430807657
 C         -4.4233756905        0.1300843834       -0.0226635343
 C         -4.8585767795        0.0034177325        1.2817153367
 C         -5.0895468869        1.1489235522        2.0257378045
 C         -4.8859769640        2.3963320675        1.4556923198
 C         -4.4577617207        2.5076136383        0.1421804057
 C         -4.2227605185        1.3645298143       -0.6054331058
 H         -3.8837126680        1.4052690726       -1.6284991067
 H         -4.3021782405        3.4786281616       -0.3008173583
 H         -5.0631389495        3.2873877655        2.0370163012
 H         -5.4254857979        1.0663921096        3.0467609565
 H         -5.0157671564       -0.9791711101        1.6954663556
 H         -3.5366464212       -3.0367214295        0.4069906539
 H         -2.0705754420       -3.0828943213        2.2642068103
 H         -0.2318558422       -1.9799641925        3.4875267644
 H          0.8131963410        0.0605349504        2.5763843086
 C          0.2678761465        1.3545909877        0.3139208848
 H          0.2748627715        2.0920900286        1.1337324598
 C         -0.4835368542        1.9996764641       -0.8405869389
 C          0.2088496677        2.9084883570       -1.8102441654
 C         -0.2892146190        1.5698981058       -2.2621690648
 H         -1.1532026548        1.5270487457       -2.9101531957
 H          0.4295045243        0.7887850312       -2.4543941045
 H         -0.3114328348        3.7931442954       -2.1450701156
 H          1.2743462819        3.0460278782       -1.6959001127
 H         -1.4912864393        2.2832040271       -0.5515625496
 O          1.3841836435       -1.0073883400       -1.0402357003
