  62
        -98.93383365
 C          2.4216635855       -0.4652025590        0.0306344649
 C          3.6155108074       -0.7958315252       -0.6501234190
 C          4.7439950813        0.1382253080       -0.4960419148
 C          4.5884526582        1.2420839018        0.2589053889
 C          5.5361198054        2.3856051385        0.5558390074
 C          7.0305277289        2.2580098518        0.2710311889
 C          7.7635020127        1.2352210623        1.1381524393
 H          7.7880931838        1.6047664562        2.1663999083
 H          8.7947493131        1.1660375408        0.7850398943
 C          7.1533993366       -0.1639509075        1.1659131667
 H          6.1607879130       -0.1228522781        1.6190716485
 H          7.7764491301       -0.7872356942        1.8130755737
 C          7.0510515367       -0.8601522022       -0.1898706144
 H          6.7582246144       -1.8972154006       -0.0051259278
 H          8.0298570021       -0.8706538991       -0.6732111207
 C          6.0265891718       -0.2589165795       -1.1683021296
 H          5.7641155260       -1.0302532435       -1.8982788004
 H          6.4476495475        0.5796618180       -1.7178525259
 H          7.4696750887        3.2382932622        0.4755517347
 H          7.1978420128        2.0527933501       -0.7821924770
 H          5.1496110305        3.2440727635       -0.0047512665
 H          5.3928415489        2.6209725579        1.6151459436
 O          3.4079766970        1.5274088927        0.8831384969
 C          2.3053065516        0.6941715669        0.7945599222
 O          1.3116702445        1.0897397910        1.4324577221
 H         -1.3201926986       -0.8492284716        0.8489262534
 C         -1.1442411242       -0.4582421985       -0.1412109062
 C          0.0858581770       -0.6483560149       -0.7485653443
 C          0.2820722088       -0.1315219439       -2.0269658572
 C         -0.7222714844        0.5651835251       -2.6695946297
 C         -1.9449005580        0.7675355466       -2.0523488554
 C         -2.1539688064        0.2517850866       -0.7813506256
 N         -3.3883436783        0.4665995949       -0.1316012827
 S         -4.7882734225       -0.0068445198       -0.9511988044
 O         -4.7405159060       -1.4237229509       -1.2445142299
 O         -4.9811826620        0.8633237608       -2.0824734524
 C         -6.0256716621        0.3279406811        0.2861817383
 C         -6.4216323172        1.6376239759        0.4796270599
 C         -7.3698714851        1.9135454361        1.4514682550
 C         -7.9029366438        0.8813170974        2.2094853900
 C         -7.4956913541       -0.4279883804        2.0033955568
 C         -6.5463227222       -0.7107560920        1.0336861248
 H         -6.2069352608       -1.7144620242        0.8335239920
 H         -7.9138333000       -1.2282072674        2.5926614807
 H         -8.6425161705        1.0985366498        2.9639471871
 H         -7.6904701599        2.9299432858        1.6140047947
 H         -5.9864825193        2.4055550299       -0.1381933319
 H         -3.3910046687        0.0510748919        0.7913463888
 H         -2.7373363894        1.3058898518       -2.5454947221
 H         -0.5539784330        0.9598786334       -3.6606029310
 H          1.2384797291       -0.2842627017       -2.5088790085
 C          1.2238758614       -1.3899527443       -0.0918237425
 H          1.5429602952       -2.1917547529       -0.7736367175
 C          0.8771407198       -2.0006144503        1.2489892813
 C          0.1035490158       -3.2830337091        1.3104850467
 C          1.5588304056       -3.2674090587        1.6673602583
 H          1.8379039061       -3.3846455959        2.7037171354
 H          2.2618142919       -3.7053838262        0.9740483140
 H         -0.1864180498       -3.7362238022        0.3744020717
 H         -0.6162206104       -3.4149596064        2.1043132523
 H          0.6972045751       -1.2550798998        2.0154525908
 O          3.7340300015       -1.8258272146       -1.3676450442
