  62
        -98.94452617
 C          1.5359669572        1.4996526926        0.2033223170
 C          1.7481441832        0.4522551312        1.1383323891
 C          2.9851676646       -0.3246622600        0.9867278109
 C          3.8172823744       -0.0346211099       -0.0304741275
 C          5.0997462219       -0.7565930871       -0.3250362812
 C          4.8729648128       -1.9388834310       -1.2770459331
 C          3.7280646504       -2.8571493518       -0.8512623287
 H          2.7903440624       -2.3016388168       -0.9173309610
 H          3.6735048045       -3.6705547867       -1.5775092526
 C          3.8768094632       -3.4403856457        0.5608717451
 H          4.9125380521       -3.3502996258        0.8905285634
 H          3.6393837476       -4.5057601090        0.5280774396
 C          2.9573223131       -2.8147109126        1.6115449904
 H          1.9221139731       -2.8481874562        1.2646377736
 H          3.0124877935       -3.4267737588        2.5160232599
 C          3.2846828283       -1.3735467180        2.0219703220
 H          2.6588660503       -1.1278325261        2.8853982545
 H          4.3308652497       -1.3111125523        2.3307634939
 H          5.7991384124       -2.5127611641       -1.3412526122
 H          4.6469531580       -1.5451758587       -2.2705700601
 H          5.7894260842       -0.0515867758       -0.7920946308
 H          5.5332180901       -1.1077363290        0.6096846909
 O          3.5566605064        0.9364818795       -0.9383024793
 C          2.4257368039        1.7364639986       -0.8458540841
 O          2.3526074791        2.5923972620       -1.7475955822
 H         -2.0442876792        1.2748427145        1.1515079217
 C         -1.9802167381        1.4237737072        0.0839668958
 C         -0.8364067057        1.9741085731       -0.4758788973
 C         -0.7847328819        2.1510178689       -1.8549775749
 C         -1.8590020936        1.7873926849       -2.6458343865
 C         -2.9930166162        1.2247183027       -2.0851599813
 C         -3.0506865063        1.0357343026       -0.7104319267
 N         -4.1783147425        0.4522442282       -0.1035109320
 S         -3.9215680137       -0.8346592209        0.9422677258
 O         -5.2044863273       -1.4982510796        1.0239870109
 O         -3.3752102032       -0.3588289052        2.1855763014
 C         -2.7593131743       -1.8586669203        0.0599123502
 C         -3.2687007607       -2.7257055515       -0.8883814999
 C         -2.3939302403       -3.4570233394       -1.6739407430
 C         -1.0261726236       -3.2921229886       -1.5150561379
 C         -0.5334704107       -2.4164083002       -0.5613794304
 C         -1.4011563121       -1.6941027357        0.2428763660
 H         -1.0296185460       -1.0207303092        0.9996591366
 H          0.5294727353       -2.2780870949       -0.4373551382
 H         -0.3393370922       -3.8480029808       -2.1335655728
 H         -2.7772252344       -4.1440268570       -2.4109642717
 H         -4.3387872260       -2.8204335844       -0.9797323449
 H         -4.9223588653        0.2314469869       -0.7506592971
 H         -3.8270841655        0.9348356629       -2.7059441565
 H         -1.8094378856        1.9346326228       -3.7140185961
 H          0.1083721765        2.5634946102       -2.2981011179
 C          0.3100873616        2.3712670948        0.4224784574
 H         -0.0011511407        2.1666938833        1.4565791072
 C          0.6019730051        3.8545945730        0.3006585188
 C         -0.3270732849        4.8293741245        0.9569986474
 C          1.0491164512        4.6151825761        1.5109019120
 H          1.7849111844        5.3953803748        1.3861087599
 H          1.1461271600        4.0690482348        2.4382842699
 H         -0.5391376177        5.7590658984        0.4519068644
 H         -1.1638868813        4.4280680096        1.5093054172
 H          1.0373784759        4.1343067803       -0.6493543599
 O          0.9434788311        0.1922347174        2.0742323942
