  62
        -98.94362126
 C         -0.8706019499       -1.7537497398        0.0910209903
 C          0.0442874199       -2.3777715904       -0.7854270194
 C          1.4575052900       -2.3622628803       -0.3758111195
 C          1.8105371801       -1.7413959897        0.7654420202
 C          3.1602931702       -1.6216052495        1.4390050400
 C          4.4496274901       -1.7566114300        0.6312660200
 C          4.6409978301       -0.7168323907       -0.4707525906
 H          4.7503808902        0.2694130296       -0.0140346711
 H          5.5735514701       -0.9479821310       -0.9911015705
 C          3.5164799301       -0.6280578011       -1.5005004006
 H          3.8208959001        0.0854252784       -2.2722370410
 H          2.6143230301       -0.2170079308       -1.0408723307
 C          3.1588341199       -1.9394494415       -2.1996407498
 H          4.0593529098       -2.3918939518       -2.6200074896
 H          2.4913475099       -1.6875942218       -3.0284322399
 C          2.4371944898       -2.9847026609       -1.3269120592
 H          1.8578754797       -3.6347048812       -1.9890492988
 H          3.1447836898       -3.6117037407       -0.7886752689
 H          5.2724187701       -1.6389579997        1.3416735599
 H          4.5343060300       -2.7559819703        0.2142312905
 H          3.1476138903       -0.6477768892        1.9358446195
 H          3.1733141401       -2.3787936990        2.2309966104
 O          0.8914779402       -1.1410353492        1.5750028199
 C         -0.4581754098       -1.1254898292        1.2646347400
 O         -1.1702478697       -0.5335883287        2.0962683997
 O         -0.3045232702       -2.9357057709       -1.8623943690
 C         -2.3405606700       -1.7010869199       -0.2770259796
 C         -2.8231805898       -0.2712326298       -0.2974087503
 C         -4.0878600298        0.1074232905        0.1363352395
 C         -4.4667875196        1.4384615406        0.1128159388
 C         -3.5945769896        2.4176823002       -0.3254060818
 C         -2.3295552396        2.0471184099       -0.7710174116
 C         -1.9648937898        0.7108959998       -0.7745774009
 H         -0.9849787998        0.4358355395       -1.1359360608
 N         -1.4202875996        3.0168391895       -1.2176331622
 S          0.2282712204        2.8209860094       -1.2009517122
 O          0.7360062205        4.1353601991       -1.5382332030
 O          0.6230774803        1.7583691788       -2.0931847317
 C          0.7702782405        2.4373807002        0.4584072579
 C          2.1300606705        2.2314949402        0.5948871980
 C          2.6538590005        1.9851854708        1.8522301781
 C          1.8097004306        1.9401041115        2.9517013681
 C          0.4500329606        2.1503344915        2.7995533681
 C         -0.0789863794        2.4107568209        1.5440408080
 H         -1.1389209894        2.5612410609        1.4203779780
 H         -0.2109867193        2.1007826021        3.6493111182
 H          2.2134770206        1.7361288820        3.9310789782
 H          3.7154550705        1.8335207308        1.9714238381
 H          2.7466397004        2.2688034296       -0.2895998021
 H         -1.6890864495        3.9770906396       -1.0656909527
 H         -3.8824771795        3.4577731403       -0.3228378023
 H         -5.4509503996        1.7197154408        0.4551910287
 H         -4.7744820298       -0.6390411792        0.5003045600
 H         -2.4052633401       -2.1046866204       -1.2991149794
 C         -3.1486044900       -2.5879871993        0.6493119010
 C         -4.3681561601       -3.3021916994        0.1498121714
 C         -3.1153807102       -4.0711909494        0.4393863918
 H         -3.0903785502       -4.7149110189        1.3057576621
 H         -2.5337691302       -4.4382806699       -0.3937409281
 H         -5.2065822301       -3.4224364290        0.8193428915
 H         -4.6442907902       -3.1589543200       -0.8840429986
 H         -3.1465306399       -2.2269888687        1.6717911108
