  62
        -98.93514685
 C         -1.6996975207       -0.0800070052        0.3745531910
 C         -2.8262542506       -0.7692850348        0.8908682087
 C         -4.1374490776       -0.1228967913        0.7180816170
 C         -4.2013846610        1.0846584430        0.1327265094
 C         -5.4145792622        1.9460932343       -0.1147954775
 C         -6.6861035515        1.2507168120       -0.6196682642
 C         -6.4446288372        0.0437392914       -1.5380382903
 H         -7.0391020631        0.1639556501       -2.4456918193
 H         -5.3962685535        0.0064659462       -1.8394904041
 C         -6.8385116345       -1.2867427231       -0.8917965805
 H         -7.7911082333       -1.1553620438       -0.3739849404
 H         -6.9946500421       -2.0270228016       -1.6802337348
 C         -5.8164527100       -1.8717247950        0.0822530782
 H         -4.9388932842       -2.2220619665       -0.4681761377
 H         -6.2663275482       -2.7476900300        0.5556001830
 C         -5.3259051521       -0.9153558033        1.1814475203
 H         -6.1288386194       -0.2707720385        1.5303942146
 H         -4.9745036438       -1.5212754289        2.0210196895
 H         -7.2908509197        0.9351782030        0.2293421432
 H         -7.2658786861        2.0049168528       -1.1545747344
 H         -5.6437429051        2.4836523326        0.8100183090
 H         -5.0890857601        2.6904506926       -0.8456796432
 O         -3.0879343411        1.7364759103       -0.3047028650
 C         -1.8166531301        1.1839560659       -0.2033442563
 O         -0.9171534945        1.9178787564       -0.6522433297
 H          1.8346731965        0.3660013431       -0.7586341899
 C          1.7372478432        0.6766063366        0.2673582132
 C          0.6777189248        0.2314973100        1.0407830838
 C          0.5529906770        0.7109832730        2.3424758187
 C          1.4610709801        1.6185795655        2.8510454660
 C          2.5266396794        2.0508187312        2.0804777436
 C          2.6584420865        1.5802686288        0.7801149382
 N          3.7258309918        1.9974387595       -0.0254144808
 S          4.4035301758        0.9548851936       -1.1347557524
 O          5.7544084787        1.4468105333       -1.3092259584
 O          3.6071405584        0.8845216523       -2.3335966089
 C          4.4377890897       -0.6395581602       -0.3318053597
 C          5.0313979775       -0.7419170838        0.9108472062
 C          5.0534058440       -1.9737599461        1.5440880990
 C          4.4877696285       -3.0787567624        0.9264444703
 C          3.9045553725       -2.9625091851       -0.3254878776
 C          3.8770738428       -1.7314611935       -0.9616768445
 H          3.4271961208       -1.5943761076       -1.9322172649
 H          3.4673539766       -3.8233558473       -0.8062666757
 H          4.5020566740       -4.0364519455        1.4222989867
 H          5.5086927751       -2.0684305753        2.5166381749
 H          5.4696577594        0.1327866972        1.3626857500
 H          4.4109636896        2.5830494170        0.4272766977
 H          3.2396164446        2.7584517472        2.4753164849
 H          1.3457628458        1.9882162795        3.8587811238
 H         -0.2773605690        0.3705871842        2.9459955940
 C         -0.3447802103       -0.7477380000        0.5260136867
 H         -0.5059138945       -1.5103274813        1.3063289667
 C          0.1267492385       -1.4921398774       -0.7139183202
 C         -0.8488409198       -2.1347199755       -1.6522707717
 C         -0.0524921608       -0.9465334137       -2.0974975181
 H          0.7423223128       -1.0911232201       -2.8154922782
 H         -0.5530990621        0.0037779005       -2.2012140335
 H         -1.9013583093       -1.9952117917       -1.4524975644
 H         -0.6069340467       -3.1028724707       -2.0638844575
 H          1.0455917280       -2.0392619065       -0.5247719098
 O         -2.7390530562       -1.8761715308        1.4850289059
