  62
        -98.93486722
 C         -2.2546589902       -0.5182036500        0.0976486500
 C         -3.5245140502       -1.0336838303        0.4405219295
 C         -4.6519018802       -0.0813429902        0.4518789205
 C         -4.4095274101        1.2090549201        0.1543755417
 C         -5.3949987600        2.3437053302        0.0620179829
 C         -6.2302914701        2.2990083315       -1.2279008571
 C         -6.7596000702        0.9175291619       -1.6039968284
 H         -7.2348405502        1.0003975629       -2.5850388883
 H         -5.9194220602        0.2286739520       -1.7092687391
 C         -7.7835589402        0.3274367210       -0.6373271890
 H         -8.1366413703       -0.6108099085       -1.0727401999
 H         -8.6390644601        1.0027565710       -0.5659891283
 C         -7.2774020601        0.0332713096        0.7762904207
 H         -8.0257601801       -0.5974925108        1.2649001102
 H         -7.2089253001        0.9433859891        1.3659144016
 C         -5.9594656502       -0.7326874905        0.8343855299
 H         -5.8155266702       -1.1017247715        1.8570842496
 H         -6.0398134203       -1.6324600299        0.2139305591
 H         -7.0640235400        2.9952649815       -1.1229555164
 H         -5.5998656401        2.6482849123       -2.0493409568
 H         -6.0356443200        2.3543130594        0.9387228129
 H         -4.8103261700        3.2662691402        0.0656007138
 O         -3.1614487101        1.6641329803       -0.1597963779
 C         -2.0602688701        0.8295360203       -0.1994010987
 O         -0.9919528701        1.3965422405       -0.5020381582
 O         -3.7177689103       -2.2463820105        0.7278176784
 C         -1.0646564503       -1.4582940900        0.0515789990
 C          0.0199498398       -0.9712157910        0.9796554694
 C         -0.3094515901       -0.6825789222        2.3019836597
 C          0.6477138800       -0.2191564432        3.1824631201
 C          1.9531604500       -0.0316380628        2.7630015602
 C          2.2974465699       -0.3330178716        1.4510231599
 C          1.3341447298       -0.8089529007        0.5713287095
 H          1.6250583397       -1.0283171397       -0.4413114807
 N          3.6325138399       -0.2026422612        1.0244024300
 S          3.9864976698        0.3733215102       -0.5226376095
 O          3.4316986199        1.6951954705       -0.7134063281
 O          3.6250256997       -0.6257582188       -1.4954260304
 C          5.7640950698        0.4666380500       -0.4005143794
 C          6.4889149698       -0.7082225700       -0.4697502806
 C          7.8683697598       -0.6522639202       -0.3521990506
 C          8.4972457699        0.5705126796       -0.1688469395
 C          7.7570717499        1.7411920596       -0.1038097383
 C          6.3764069899        1.6918146298       -0.2187439283
 H          5.7603516100        2.5760152498       -0.1813990374
 H          8.2486302300        2.6905921194        0.0353579126
 H          9.5712789499        0.6116143595       -0.0789421495
 H          8.4476131997       -1.5599350301       -0.4048282115
 H          5.9575007497       -1.6329103098       -0.6222718415
 H          4.1983971099        0.2896591781        1.7037196905
 H          2.6993001700        0.3425038565        3.4477663106
 H          0.3754544600        0.0076268759        4.2024676904
 H         -1.3328660001       -0.8180280825        2.6254280196
 H         -1.4373595703       -2.4216748704        0.4313907181
 C         -0.6000595903       -1.6467222887       -1.3769389012
 C          0.0829688696       -2.9159733683       -1.7867845925
 C         -1.3123200104       -2.6314407678       -2.2530674121
 H         -1.4703011105       -2.3775808067       -3.2905784219
 H         -2.1239516104       -3.1900303981       -1.8100690526
 H          0.8911378695       -2.8548613477       -2.5002039524
 H          0.2193065696       -3.6738746790       -1.0302292432
 H         -0.2684581103       -0.7194833382       -1.8336696903
