  62
        -98.92853791
 C         -1.5736779615       -1.5587445015        0.3622437093
 C         -1.8611597228       -0.5136566048        1.2842522443
 C         -2.5722940563        0.6794001404        0.7930766047
 C         -2.9492487412        0.7140850770       -0.4973723008
 C         -3.6303441116        1.8270061129       -1.2477063747
 C         -2.6583229340        2.9625065816       -1.6022408850
 C         -1.7628605691        3.4204684143       -0.4541969865
 H         -1.1457837014        2.5784409616       -0.1349419377
 H         -1.0790170099        4.1751707232       -0.8530705263
 C         -2.4870875234        4.0254072580        0.7467960630
 H         -1.7187584346        4.4054298773        1.4246245864
 H         -3.0834317434        4.8762220474        0.4100913010
 C         -3.3917205648        3.0779688355        1.5397952817
 H         -4.3486493054        2.9377080676        1.0440696795
 H         -3.6065689443        3.5615560723        2.4970331375
 C         -2.7662142762        1.7257936202        1.8641542290
 H         -3.3646092159        1.2403567711        2.6443622118
 H         -1.7802945277        1.8877724018        2.3141872368
 H         -3.2364321990        3.8072295964       -1.9821229051
 H         -2.0018697152        2.6083389620       -2.4021374145
 H         -4.0102695528        1.3938201160       -2.1760079587
 H         -4.4782982523        2.2042923883       -0.6837155216
 O         -2.6964177912       -0.3215390950       -1.3404063731
 C         -1.9538195954       -1.4322058335       -0.9757821121
 O         -1.7397726748       -2.2003564376       -1.9352982138
 O         -1.5116396659       -0.5613605078        2.4954959396
 C         -0.7003718142       -2.6627579231        0.9410145560
 C          0.7576014043       -2.3495391379        0.6771384515
 C          1.7137725440       -2.5086154230        1.6747973199
 C          3.0197562113       -2.0950215896        1.4802454711
 C          3.3889083819       -1.4716717388        0.3005045904
 C          2.4456312795       -1.3255902774       -0.7052730673
 C          1.1558795172       -1.8001553755       -0.5322564701
 H          0.4427755857       -1.6724403701       -1.3319725486
 N          2.7850256242       -0.5518732487       -1.8605024813
 S          2.0244454327        0.9593630887       -1.7451567671
 O          0.5924205039        0.8478895345       -1.9247882289
 O          2.6945644352        1.8194854106       -2.6969424838
 C          2.4034081004        1.4532856021       -0.0798017234
 C          1.4667234171        1.2334835419        0.9102436162
 C          1.7824584400        1.5602834325        2.2184093397
 C          3.0240980184        2.1034861236        2.5113982866
 C          3.9513002143        2.3272592241        1.5044268039
 C          3.6428183191        1.9965660772        0.1945871484
 H          4.3301818527        2.1501149240       -0.6209166446
 H          4.9141427747        2.7523904621        1.7376202099
 H          3.2678629184        2.3527391173        3.5320149249
 H          1.0567903845        1.3726938928        2.9944944914
 H          0.5125213508        0.8000323251        0.6495305763
 H          2.4741355734       -0.9849114865       -2.7211616671
 H          4.3841766776       -1.0861986535        0.1535729929
 H          3.7463320522       -2.2231186547        2.2670738147
 H          1.4163128592       -2.9331877809        2.6221430827
 H         -0.8441757393       -2.5390877074        2.0266367285
 C         -0.9931708826       -4.1325592131        0.6661194558
 C         -2.2643385234       -4.6392381981        0.0611567720
 C         -0.9696019787       -4.7837095757       -0.6813870604
 H         -0.5261589755       -5.7654134655       -0.7626573517
 H         -0.8323543308       -4.1565442508       -1.5463832502
 H         -2.7275663687       -5.5164062984        0.4882864660
 H         -2.9651886761       -3.9096171844       -0.3161043808
 H         -0.5877319759       -4.7449989516        1.4671922334
