  62
        -98.94648398
 C         -1.4203887965       -1.5656006650       -0.4219929844
 C         -1.2734912203       -0.2454369129       -0.9167747032
 C         -2.4767219048        0.5970218189       -0.8533891699
 C         -3.6376933246        0.0891857996       -0.4040560065
 C         -4.9644239339        0.7989725048       -0.3618468777
 C         -5.1848949693        1.6646629730        0.8852593863
 C         -4.3551620451        2.9476793983        0.9347732741
 H         -4.4905403578        3.5044805140        0.0070293503
 H         -4.7556577049        3.5605811427        1.7446759974
 C         -2.8590419597        2.7144499320        1.1852213361
 H         -2.7039909189        1.7058473198        1.5761171983
 H         -2.5004898607        3.4041719747        1.9530189439
 C         -1.9623389660        2.9045149477       -0.0382633323
 H         -1.9783358542        3.9538462481       -0.3440784002
 H         -0.9430909160        2.6518292915        0.2665891740
 C         -2.3397136676        2.0365128954       -1.2463228638
 H         -3.2631999261        2.4014997242       -1.6965617020
 H         -1.5363564850        2.1039627205       -1.9839607008
 H         -4.9748029148        1.0622603534        1.7720676136
 H         -6.2424562872        1.9375354419        0.9106629942
 H         -5.0745109939        1.4146769808       -1.2551494346
 H         -5.7305713819        0.0206282759       -0.3788585478
 O         -3.7458794988       -1.1914231173        0.0395186997
 C         -2.6429636569       -2.0272720049        0.0753756167
 O         -2.8805147961       -3.1578917514        0.5487470047
 H          1.3010778577       -0.4231534869        0.0350725533
 C          1.3969910001       -1.1482816022        0.8256244758
 C          0.6385283139       -2.3093048984        0.7820059993
 C          0.7503183466       -3.2212462375        1.8254018793
 C          1.6015226167       -2.9719455674        2.8873737033
 C          2.3511109614       -1.8101493727        2.9308577969
 C          2.2429916512       -0.8901735575        1.8936704739
 N          3.0097026703        0.2830131525        1.8862495211
 S          2.3876719612        1.6947589781        1.2330719256
 O          3.2434994127        2.7358263598        1.7703893084
 O          0.9818166493        1.8422006115        1.5293631283
 C          2.6837063450        1.5806486140       -0.5180160391
 C          3.6848919883        0.7574351142       -0.9924406697
 C          3.9221119443        0.7130417756       -2.3567062752
 C          3.1649725723        1.4926426867       -3.2171837727
 C          2.1708020593        2.3211853062       -2.7227130284
 C          1.9265682393        2.3683222419       -1.3599734570
 H          1.1512336559        2.9882713499       -0.9395128323
 H          1.5781507640        2.9239308784       -3.3923363880
 H          3.3469447163        1.4509842588       -4.2798046896
 H          4.6925912513        0.0657502385       -2.7443829270
 H          4.2481947408        0.1544192741       -0.2996214850
 H          3.5460887645        0.4589799709        2.7228978947
 H          3.0122852091       -1.6132826873        3.7611188663
 H          1.6788694431       -3.6868219971        3.6926704816
 H          0.1531156379       -4.1214715874        1.8059172508
 C         -0.2827328542       -2.5755179250       -0.3842325561
 H         -0.7603248790       -3.5506079662       -0.2176354848
 C          0.4977134024       -2.6386435147       -1.6839127068
 C          1.3026925401       -3.8650744593       -1.9868033160
 C          0.0520248325       -3.5783629538       -2.7614852407
 H          0.1399851938       -3.2608820696       -3.7895058883
 H         -0.8205815306       -4.1851213347       -2.5660697241
 H          2.2530638952       -3.7462122969       -2.4834657787
 H          1.2785713091       -4.6697447236       -1.2674659874
 H          0.8978632379       -1.6821273519       -1.9925447472
 O         -0.2159562291        0.2233596619       -1.4129615357
