  62
        -98.94506605
 C         -2.3643175963       -0.3368843433        0.0712853518
 C         -1.4917031447        0.2655939722       -0.8602758115
 C         -1.3997332514        1.7375817384       -0.8415160381
 C         -2.1487840981        2.4203654059        0.0439050450
 C         -2.2351374243        3.9099037393        0.2563603703
 C         -1.0240188392        4.4858614616        1.0020021625
 C          0.3305774478        4.0240045171        0.4727190979
 H          0.4099172641        2.9408015576        0.5830570256
 H          1.1015471474        4.4611438552        1.1140975649
 C          0.6363888387        4.4283465709       -0.9682673973
 H          1.6798940184        4.1636580152       -1.1581056680
 H          0.5458683832        5.5130693079       -1.0621530110
 C         -0.2208816103        3.7662621767       -2.0513185892
 H          0.3004318897        3.8987549706       -3.0036264712
 H         -1.1841619411        4.2590884774       -2.1552637887
 C         -0.4199949938        2.2669094082       -1.8602393329
 H          0.5462585132        1.8073567398       -1.6203378705
 H         -0.7256119314        1.8244848925       -2.8156326555
 H         -1.0917142757        4.1824203835        2.0499472636
 H         -1.0832997985        5.5756529233        0.9605094676
 H         -3.1288445732        4.0845104235        0.8603816114
 H         -2.3739390698        4.4168831852       -0.6942092952
 O         -2.9793191935        1.7938777701        0.9288574903
 C         -3.0898116653        0.4193572104        0.9875922514
 O         -3.8587571403       -0.0046171214        1.8768481396
 O         -0.8093084896       -0.3988290671       -1.6859748047
 C         -2.4774545324       -1.8494603525        0.1302237437
 C         -1.1036456138       -2.4606470100        0.2660054093
 C         -0.7070878067       -3.6098393350       -0.4069978763
 C          0.5794860994       -4.1000443048       -0.2615775548
 C          1.5029938543       -3.4433907156        0.5312689409
 C          1.1116470069       -2.2996308334        1.2172878024
 C         -0.1906395521       -1.8413392815        1.1097604680
 H         -0.4802374102       -0.9547671037        1.6551107960
 N          2.0160364212       -1.5707248350        2.0184326477
 S          2.3565311288        0.0003782298        1.5378634896
 O          3.3160458076        0.4880605896        2.5059776132
 O          1.1370993823        0.7536405855        1.4116743563
 C          3.1644429719       -0.1836528147       -0.0426320323
 C          4.5437184285       -0.1065922297       -0.0892351029
 C          5.1884566274       -0.3072562908       -1.2985912144
 C          4.4461675181       -0.5897166959       -2.4357315747
 C          3.0639095270       -0.6683315386       -2.3705365959
 C          2.4100725566       -0.4667303649       -1.1637647230
 H          1.3337152997       -0.5206389535       -1.0981640550
 H          2.4785284908       -0.8867691105       -3.2492705100
 H          4.9464143521       -0.7486964974       -3.3780455246
 H          6.2635052034       -0.2444694826       -1.3502189660
 H          5.0765789931        0.1189609545        0.8204839669
 H          2.8863318987       -2.0553740807        2.1924349431
 H          2.5159627577       -3.8067035532        0.6190067181
 H          0.8730571765       -4.9934164206       -0.7912399281
 H         -1.4043288063       -4.1180471842       -1.0529335442
 H         -3.0531225658       -2.0781040359        1.0396344421
 C         -3.2415497393       -2.3612773266       -1.0746120214
 C         -4.0952088235       -3.5883775863       -0.9687125828
 C         -4.7345881984       -2.2384279705       -1.0869107168
 H         -5.2235697797       -1.9754073092       -2.0128439094
 H         -5.2007368443       -1.8104038592       -0.2110307598
 H         -4.1501641157       -4.2535941402       -1.8172917820
 H         -4.1405864622       -4.0860933071       -0.0118175341
 H         -2.7167035642       -2.1783786946       -2.0053612335
