  62
        -98.93761595
 C         -1.4314252587       -0.9932663493        1.0336940105
 C         -2.4182950287       -0.5993950593        0.0970254005
 C         -2.9683537482        0.7530951209        0.2770957001
 C         -2.5120523779        1.5298291311        1.2746946598
 C         -2.9619645074        2.9361270913        1.5454044994
 C         -2.0721608072        3.9608252108        0.8292031589
 C         -1.8368675575        3.6553123802       -0.6503429010
 H         -1.2355070673        4.4727293599       -1.0562951214
 H         -1.2289316778        2.7508482200       -0.7369153008
 C         -3.1179269076        3.5036845203       -1.4825385408
 H         -3.9563425874        3.9652808608       -0.9587444309
 H         -2.9854770976        4.0434355800       -2.4228002210
 C         -3.4774741581        2.0616005603       -1.8453324603
 H         -2.5982926583        1.5625329999       -2.2622745302
 H         -4.2428648082        2.0879293003       -2.6259502902
 C         -4.0200581582        1.2004458409       -0.6979893699
 H         -4.8246926580        1.7322059213       -0.1859331100
 H         -4.4326558286        0.2860222009       -1.1342608496
 H         -2.5312902969        4.9465095010        0.9313760486
 H         -1.0987644271        3.9843832407        1.3249077888
 H         -3.9947467674        3.0481586815        1.2205301795
 H         -2.9081023372        3.1125370817        2.6214100493
 O         -1.5543297179        1.1230781011        2.1458707898
 C         -0.9718634383       -0.1271572991        2.0252843001
 O         -0.0704805282       -0.3516151191        2.8608134201
 H          1.2027830613       -0.8525884904        0.1577066601
 C          0.8751936110       -1.4544022006       -0.6765979697
 C         -0.1383287193       -2.3889946802       -0.4710708392
 C         -0.5409863697       -3.1545012905       -1.5564025189
 C          0.0378127002       -2.9637157211       -2.8015148290
 C          0.9953478905       -1.9899961914       -3.0079516995
 C          1.4096820509       -1.2158992512       -1.9289734398
 N          2.3647553412       -0.2012805815       -2.0845842103
 S          2.3020644417        1.1806882388       -1.1369980307
 O          0.9599349219        1.4866955293       -0.7034388207
 O          2.9564373819        2.1913451883       -1.9432759112
 C          3.3668743518        0.7785578089        0.2317206993
 C          2.8852993619        0.7372459395        1.5236537393
 C          3.7547927420        0.4053388396        2.5520397693
 C          5.0833522018        0.1274861691        2.2731936293
 C          5.5542844617        0.1801748685        0.9692560992
 C          4.6902043616        0.5079718284       -0.0616661808
 H          5.0148820415        0.5667837980       -1.0870528909
 H          6.5887139316       -0.0352879319        0.7555261891
 H          5.7537583319       -0.1317360809        3.0774036993
 H          3.3770032521        0.3601482400        3.5610885194
 H          1.8433055620        0.9440027099        1.7173987694
 H          2.6210836711        0.0019683881       -3.0392978004
 H          1.4094978804       -1.8185350219       -3.9898542996
 H         -0.2919726301       -3.5673106313       -3.6338206388
 H         -1.3288428299       -3.8794735502       -1.4651041986
 C         -0.7310452191       -2.3458597996        0.9174206209
 H          0.1187970710       -2.2823806796        1.6165557107
 C         -1.6141286094       -3.4574992491        1.4597503913
 C         -2.7652368697       -4.0922084090        0.7434424817
 C         -1.5316458799       -4.8935889393        1.0372181818
 H         -1.5922563300       -5.6485528590        1.8071902821
 H         -0.8674636301       -5.1502745398        0.2282253918
 H         -2.9789927097       -3.7671527393       -0.2611049084
 H         -3.6553061297       -4.2986644585        1.3210515719
 H         -1.7714252892       -3.2885523487        2.5233386713
 O         -2.8300286890       -1.3279618895       -0.8408211592
