  62
        -98.93873807
 C         -2.4456802227       -1.1091054694       -0.1324897774
 C         -2.6172396952        0.1033116011       -0.8429967076
 C         -4.0079994605        0.5438685164       -1.0256653268
 C         -5.0097674315       -0.2178210997       -0.5493038799
 C         -6.4662994317        0.1370499774       -0.6217327227
 C         -6.9124003187        0.9091030739        0.6279199858
 C         -5.9955150146        2.0768310254        0.9922351911
 H         -6.4238540510        2.5647422487        1.8705542874
 H         -5.0189249733        1.6854915924        1.2867522889
 C         -5.8087491900        3.1104863316       -0.1271450258
 H         -6.6032078047        3.0030743777       -0.8665092219
 H         -5.8982205567        4.1105976894        0.3021049842
 C         -4.4510568561        3.0472853407       -0.8295580577
 H         -3.6510861065        3.0584243512       -0.0847387265
 H         -4.3421744151        3.9477642732       -1.4398685136
 C         -4.2319776906        1.8407526254       -1.7511428750
 H         -5.0663156485        1.7541596697       -2.4500344797
 H         -3.3186084116        2.0227868142       -2.3248956369
 H         -7.9262896893        1.2779535477        0.4624331105
 H         -6.9363441807        0.2163975078        1.4723825092
 H         -6.6453809117        0.7338723985       -1.5138027125
 H         -7.0420736920       -0.7873303084       -0.6916982821
 O         -4.8046750716       -1.3899747592        0.1054051819
 C         -3.5222254785       -1.8563943226        0.3433145105
 O         -3.4732982835       -2.9289702079        0.9800355709
 H          1.5683274786       -0.8799875518       -0.3179621321
 C          1.1059298794       -0.3548247088        0.4994179549
 C         -0.2097686577       -0.6184236967        0.8484648074
 C         -0.7656432955        0.0676196472        1.9251446639
 C         -0.0293130162        1.0053965447        2.6216237250
 C          1.2848239761        1.2618059767        2.2727970729
 C          1.8556145562        0.5743807629        1.2088566873
 N          3.1858795940        0.8424900319        0.8236893746
 S          4.3247728098       -0.3976778364        0.7174244159
 O          3.7809268533       -1.5113756233       -0.0115752274
 O          4.8422769900       -0.6881852763        2.0402751755
 C          5.5790501959        0.4141412939       -0.2529300166
 C          5.3407125279        0.5865115011       -1.6027498358
 C          6.2941546835        1.2307864498       -2.3742599557
 C          7.4629816812        1.6909886967       -1.7855641424
 C          7.6875117655        1.5109373643       -0.4294183109
 C          6.7372359882        0.8670229237        0.3478509481
 H          6.8735997268        0.6976364550        1.4037250368
 H          8.5979130973        1.8684524641        0.0241015545
 H          8.2036286883        2.1914221571       -2.3891768782
 H          6.1230553597        1.3719386337       -3.4293922201
 H          4.4205243972        0.2093216692       -2.0182059432
 H          3.5918848690        1.5806787520        1.3853688379
 H          1.8627007481        1.9929854889        2.8186806617
 H         -0.4780809897        1.5364130053        3.4480075676
 H         -1.7899007129       -0.1416043532        2.2048998378
 C         -1.0478134256       -1.6419392824        0.1203490256
 H         -1.1666303499       -2.5124659167        0.7834482902
 C         -0.4317647872       -2.1079527167       -1.1827821588
 C          0.5665685825       -3.2246000162       -1.1927926296
 C         -0.8151973417       -3.4504265347       -1.7264586431
 H         -0.9467860780       -3.5576547404       -2.7926631017
 H         -1.5014358391       -4.0437025570       -1.1393722021
 H          0.8283721819       -3.6704801578       -0.2448548083
 H          1.3904484372       -3.1755949885       -1.8887561792
 H         -0.3023319794       -1.2983032940       -1.8922420298
 O         -1.6617639168        0.7830226913       -1.2999299181
