  62
        -98.93302231
 C          2.0830611691        1.0984583453        0.2111522107
 C          2.5184203279        0.0619924999        1.0695876045
 C          2.7325404125       -1.2659312495        0.4668407109
 C          2.4894943762       -1.4296569365       -0.8456394503
 C          2.6073784506       -2.6787562782       -1.6827731092
 C          3.8419641561       -3.5624347988       -1.4472857859
 C          3.5205069677       -4.8846870101       -0.7484185633
 H          2.5776280964       -5.2658971879       -1.1459055823
 H          4.2979893586       -5.6099012225       -0.9983597740
 C          3.4317018801       -4.8104129362        0.7747585000
 H          3.0615456107       -5.7741123436        1.1320191826
 H          4.4325258453       -4.6718635059        1.1892165352
 C          2.5275566905       -3.7051375398        1.3243852338
 H          2.2265480685       -3.9891417908        2.3352371163
 H          1.6137214480       -3.6240937234        0.7352620154
 C          3.2155374297       -2.3342143131        1.4095954299
 H          3.0637782542       -1.9091973119        2.4067994451
 H          4.2968795368       -2.4501700472        1.2914416677
 H          4.5922565455       -3.0081835887       -0.8858595703
 H          4.2731709504       -3.7941941108       -2.4224708106
 H          2.5939373690       -2.3261360071       -2.7168071758
 H          1.6947918413       -3.2651624567       -1.5454534825
 O          2.0454683598       -0.4093376014       -1.6325454989
 C          1.8006222939        0.8590494106       -1.1341541814
 O          1.3629513241        1.6583470165       -1.9829015304
 O          2.7162323981        0.2369172913        2.3039847325
 C          1.7841320141        2.4530163121        0.8295462600
 C          0.4063928259        2.8939796131        0.4021809202
 C          0.1257138543        4.1179166413       -0.1888469449
 C         -1.1646802150        4.4184115085       -0.5908872463
 C         -2.1904517096        3.5069460325       -0.4277748668
 C         -1.9207034080        2.2821137646        0.1741108698
 C         -0.6367662319        1.9975738930        0.6029571436
 H         -0.4357447049        1.0404863515        1.0646693811
 N         -2.9418062815        1.3343906520        0.3733365061
 S         -2.5432110557       -0.3028785891        0.2587784803
 O         -1.9892058880       -0.7340261288        1.5192147525
 O         -1.7387366329       -0.5567503013       -0.9155229407
 C         -4.1733078909       -0.9991793111        0.0583005311
 C         -4.9692191939       -1.1523887218        1.1779837888
 C         -6.2511842083       -1.6558429151        1.0246341610
 C         -6.7138924606       -1.9948686540       -0.2383540548
 C         -5.9031611025       -1.8372653493       -1.3523245372
 C         -4.6203051891       -1.3325670048       -1.2060798838
 H         -3.9509379240       -1.1980400359       -2.0409280780
 H         -6.2638252494       -2.1041483986       -2.3326004336
 H         -7.7118545333       -2.3866791789       -0.3552041843
 H         -6.8833028275       -1.7819370818        1.8886780646
 H         -4.5618575407       -0.8830212578        2.1383996119
 H         -3.7730660513        1.5434110728       -0.1635840362
 H         -3.1898163917        3.7341145962       -0.7666815121
 H         -1.3692454785        5.3698756078       -1.0580907152
 H          0.9197705422        4.8252067872       -0.3627218851
 H          1.7517979761        2.2526000778        1.9145587254
 C          2.8610971588        3.5053643590        0.6166530548
 C          4.2808426053        3.1117528697        0.3413921829
 C          3.4664432765        3.7730737657       -0.7275656321
 H          3.7006133746        4.7948829662       -0.9883933410
 H          3.1194285265        3.1768301373       -1.5564393835
 H          5.0704403929        3.6763653347        0.8141128612
 H          4.4955626512        2.0574803794        0.2412880959
 H          2.7215575038        4.3636801711        1.2668198501
