  62
        -98.94052392
 C         -2.6401170315       -1.2928521040       -0.2497024576
 C         -2.3276771958       -0.1036255827       -0.9514515439
 C         -3.4208313995        0.8724221345       -1.0727555256
 C         -4.6232048637        0.5884999324       -0.5399415418
 C         -5.8046685539        1.5138096683       -0.5435437311
 C         -5.8288629739        2.3862802651        0.7192179975
 C         -4.4954007420        3.0692943773        1.0238715474
 H         -4.6401122589        3.6825694040        1.9160201686
 H         -3.7519329553        2.3090254713        1.2758064287
 C         -3.9556097939        3.9448610286       -0.1156181627
 H         -4.7595134748        4.1818123179       -0.8135314721
 H         -3.6025129113        4.8884766607        0.3056317515
 C         -2.7815373852        3.3348344704       -0.8839286316
 H         -2.3429980848        4.1166167075       -1.5100969129
 H         -2.0094312246        3.0111859924       -0.1801835234
 C         -3.1251375832        2.1535970624       -1.8003586414
 H         -2.2470975223        1.9498943108       -2.4202141869
 H         -3.9544233373        2.4259558135       -2.4563444253
 H         -6.6078262271        3.1417847240        0.6022800182
 H         -6.0919749988        1.7553670320        1.5713479805
 H         -6.7135156395        0.9106464447       -0.5747342464
 H         -5.7655869527        2.1417599633       -1.4313279493
 O         -4.8880791115       -0.5705676015        0.1151477121
 C         -3.9036996599       -1.5274253615        0.2942057653
 O         -4.2709176226       -2.5289159220        0.9411307990
 O         -1.1996382449        0.1340725804       -1.4583572935
 C         -1.5761003171       -2.3550846578       -0.0269948344
 C         -0.4723323453       -1.7515870119        0.8075754572
 C         -0.7691153738       -1.3586868181        2.1106295546
 C          0.1887319669       -0.7548266674        2.9014357630
 C          1.4636901915       -0.5279233402        2.4113050131
 C          1.7680444016       -0.9112134828        1.1131100561
 C          0.8037905267       -1.5255324165        0.3212339331
 H          1.0512572239       -1.8079172093       -0.6897241779
 N          3.0648194601       -0.7044469686        0.6061861520
 S          3.8262925028        0.7606218984        0.9644847887
 O          4.3575840520        0.6811313948        2.3028598323
 O          2.9378082836        1.8712971840        0.7050043837
 C          5.1620845885        0.7348094431       -0.2145607328
 C          6.3402339768        0.0970263191        0.1242544640
 C          7.3676337526        0.0511049809       -0.8046178011
 C          7.2003328152        0.6393877744       -2.0494423819
 C          6.0123304075        1.2770047867       -2.3745372811
 C          4.9801277116        1.3254887536       -1.4507466486
 H          4.0427075639        1.8173171490       -1.6580612749
 H          5.8856837122        1.7355817769       -3.3420886475
 H          8.0013163112        0.6034912565       -2.7708639130
 H          8.2936009015       -0.4414638480       -0.5553556515
 H          6.4269641650       -0.3374077528        1.1063426110
 H          3.1104367618       -0.8917382174       -0.3866615246
 H          2.2168706588       -0.0455861799        3.0130699662
 H         -0.0568970657       -0.4524990458        3.9088012017
 H         -1.7690149017       -1.5254763880        2.4891994118
 H         -2.0565965803       -3.1455308356        0.5659886418
 C         -1.1138161634       -2.9444491291       -1.3421989233
 C         -0.4291729627       -4.2772461021       -1.3599043460
 C         -1.8243379819       -4.1438738961       -1.8902940778
 H         -1.9803029549       -4.2067632925       -2.9568066413
 H         -2.6372312949       -4.5503911775       -1.3063922253
 H          0.3730897910       -4.4373374218       -2.0640970894
 H         -0.2922683831       -4.7788513586       -0.4139412025
 H         -0.7911944669       -2.1922812297       -2.0522003297
