  62
        -98.94558520
 C         -0.8090561382       -1.2652313119       -0.1544223422
 C         -1.5787361234       -0.7533163745        0.9228969612
 C         -2.5272510396        0.3188737082        0.6026286721
 C         -2.5814697280        0.7862657018       -0.6572626629
 C         -3.5525669323        1.8216970661       -1.1464720830
 C         -4.8334836398        1.1668640934       -1.6829363931
 C         -5.4422194743        0.1335336659       -0.7346048478
 H         -6.3569977103       -0.2367290925       -1.2025570078
 H         -4.7601702397       -0.7154345540       -0.6480845250
 C         -5.7650130332        0.6693171369        0.6674750808
 H         -5.7997771592        1.7591176848        0.6484580562
 H         -6.7586253049        0.3190463218        0.9547937063
 C         -4.7973078467        0.2107712418        1.7602446548
 H         -4.6913823376       -0.8762023406        1.7218429941
 H         -5.2359293731        0.4625029158        2.7293602455
 C         -3.3962706041        0.8340113741        1.7147956763
 H         -3.4813485710        1.9210464041        1.6671377321
 H         -2.8826222189        0.5656366924        2.6420606082
 H         -5.5638594749        1.9523923896       -1.8859160835
 H         -4.5990709355        0.6694022655       -2.6270318335
 H         -3.7998620619        2.4993014441       -0.3311995324
 H         -3.0804394737        2.3871562624       -1.9520670673
 O         -1.7782834280        0.3271463297       -1.6481689763
 C         -0.8840578137       -0.7166445913       -1.4354588584
 O         -0.2472341001       -1.0349095735       -2.4583237459
 H          1.6838085835       -0.5166809440       -0.9626261597
 C          2.1519029249       -0.9938488083       -0.1150209734
 C          1.4875546432       -1.9952309156        0.5777201080
 C          2.1302586150       -2.6100136302        1.6470770700
 C          3.4105166505       -2.2362252153        2.0108086621
 C          4.0644805365       -1.2256591749        1.3299977563
 C          3.4278679092       -0.5992729071        0.2643396175
 N          4.0597158605        0.4445674508       -0.4254525755
 S          3.1626354125        1.7159628558       -1.0250991499
 O          2.5914845073        1.3794739787       -2.3036549716
 O          4.0949788359        2.8261921709       -1.0375407230
 C          1.8745613805        2.0551294666        0.1638755122
 C          0.6364428059        2.4380354746       -0.3084354747
 C         -0.3501480754        2.7916092159        0.5978324324
 C         -0.0906670517        2.7339775802        1.9575186118
 C          1.1557284918        2.3406468664        2.4176090537
 C          2.1541390340        2.0112224951        1.5154070716
 H          3.1352233609        1.7207084742        1.8534021002
 H          1.3541404340        2.2940152425        3.4761091129
 H         -0.8646208957        2.9973492491        2.6606681312
 H         -1.3147454748        3.1089502749        0.2372028592
 H          0.4661961128        2.4427876915       -1.3741151051
 H          4.9363598425        0.7540662871       -0.0317267610
 H          5.0589413926       -0.9201617993        1.6170252018
 H          3.8993976162       -2.7247120997        2.8394796088
 H          1.6142879791       -3.3798213624        2.2003626030
 C          0.0996612521       -2.4344651965        0.1752836378
 H         -0.3565855660       -2.9138742436        1.0531923278
 C          0.1986444324       -3.4673599380       -0.9316443234
 C          0.4774822753       -4.8976926693       -0.5844128629
 C         -0.8802268260       -4.4967119395       -1.0764326224
 H         -1.1823422203       -4.7875238515       -2.0712278829
 H         -1.6927240419       -4.4706588525       -0.3646983314
 H          1.1144560248       -5.4694375073       -1.2415312148
 H          0.5794150314       -5.1533747900        0.4589895198
 H          0.6356924125       -3.0751306899       -1.8411198675
 O         -1.4875246851       -1.1942221523        2.0994582933
