  62
        -98.93947090
 C         -2.5895831101       -0.7975595792        0.2298283197
 C         -3.1308969898        0.2447878207        1.0242763201
 C         -3.3560552098        1.5264510409        0.3482499305
 C         -3.0281147400        1.6608865812       -0.9493752096
 C         -3.2015305800        2.9013602214       -1.7828049692
 C         -2.0516357099        3.9081346812       -1.6396398392
 C         -2.0196565295        4.6735659808       -0.3160103690
 H         -1.3105336894        5.4944242808       -0.4390489190
 H         -2.9996627093        5.1132832309       -0.1275870787
 C         -1.5902906493        3.8296131305        0.8923044907
 H         -1.0909297195        2.9224027105        0.5413433103
 H         -0.8574252391        4.3856269102        1.4816877307
 C         -2.7311727792        3.4445109604        1.8348722208
 H         -2.3216742591        2.8167262501        2.6304453006
 H         -3.1435914589        4.3450994003        2.2949508811
 C         -3.8747583294        2.6718642007        1.1646080609
 H         -4.4688356095        3.3418418010        0.5437388812
 H         -4.5140793793        2.2588933806        1.9487418609
 H         -1.1047320500        3.3793597911       -1.7778393395
 H         -2.1491254899        4.6321950714       -2.4519289990
 H         -4.1455633199        3.3853625115       -1.5305765889
 H         -3.2439754103        2.5731769717       -2.8235795693
 O         -2.4948261203        0.6438515113       -1.6755573999
 C         -2.2278439404       -0.5943851089       -1.1037256403
 O         -1.6877150907       -1.4001844288       -1.8844387006
 O         -3.4036836296        0.1113300904        2.2474527601
 C         -2.2830616902       -2.1180353894        0.9165621893
 C         -0.8607830903       -2.5138270696        0.6082223989
 C         -0.4931975006       -3.7149629395        0.0182582585
 C          0.8334064593       -3.9702048696       -0.2861854918
 C          1.8178890895       -3.0387131198       -0.0132593218
 C          1.4604763798       -1.8380794199        0.5837313886
 C          0.1365175599       -1.5910882098        0.9012336589
 H         -0.1378620399       -0.6444899799        1.3541646092
 N          2.4624053200       -0.8658187001        0.8401529786
 S          2.9462383898        0.0041469702       -0.5305316413
 O          2.1087844700        1.1780534903       -0.6787797408
 O          3.0174949194       -0.8914773595       -1.6552423815
 C          4.5911155000        0.4942756698       -0.0484733315
 C          5.5763122599       -0.4741731503       -0.0384458020
 C          6.8554804200       -0.1254689206        0.3628203978
 C          7.1266714003        1.1796846392        0.7469119481
 C          6.1276353704        2.1406240094        0.7313751886
 C          4.8450380503        1.7969190997        0.3321981288
 H          4.0387086404        2.5119349498        0.2995892691
 H          6.3410401806        3.1547967693        1.0286093588
 H          8.1232328004        1.4495495690        1.0589370480
 H          7.6350201299       -0.8700036707        0.3754342975
 H          5.3203106896       -1.4724009602       -0.3523028522
 H          2.1423232802       -0.1837194502        1.5168380589
 H          2.8476260694       -3.2154020699       -0.2760810521
 H          1.1009532091       -4.9043496895       -0.7563876321
 H         -1.2493693708       -4.4399284793       -0.2346721215
 H         -2.3438473999       -1.8815716297        1.9927915794
 C         -3.2961205404       -3.2228905692        0.6633847893
 C         -4.7159770704       -2.9003938989        0.3080430597
 C         -3.8174866707       -3.5412766388       -0.7046387607
 H         -3.9899157509       -4.5774781987       -0.9569490209
 H         -3.4564998308       -2.9456199986       -1.5280272906
 H         -5.5029527704       -3.4932638489        0.7493319497
 H         -4.9737361303       -1.8595606388        0.1751685400
 H         -3.1504977604       -4.0637235894        1.3346845690
