  62
        -98.94228643
 C         -1.1963352826       -1.1918035785       -0.0415402345
 C         -1.6302909203       -0.1851872661        0.8498387735
 C         -2.7094015086        0.6983379079        0.3778877397
 C         -3.1915124555        0.5411712748       -0.8689520388
 C         -4.2375173445        1.3222054377       -1.6371323524
 C         -5.1910897440        2.2722653976       -0.9169528225
 C         -6.1846690902        1.5917734782        0.0236661403
 H         -6.7500886705        2.3696134913        0.5415359498
 H         -6.8895747159        1.0110576868       -0.5765290060
 C         -5.5725085130        0.6501475272        1.0574932664
 H         -6.3869813068        0.2454379453        1.6642750636
 H         -5.0990433245       -0.1929230863        0.5502966051
 C         -4.5604434245        1.2903602760        2.0057205506
 H         -4.3382929277        0.5611111025        2.7892239437
 H         -5.0049027938        2.1667758609        2.4811154087
 C         -3.2221289281        1.7043512647        1.3676551177
 H         -3.2847940878        2.6900994940        0.9116085281
 H         -2.4719032294        1.7627932339        2.1619432204
 H         -4.6306988390        3.0391161332       -0.3900064768
 H         -5.7674077435        2.7809726304       -1.6947071129
 H         -3.6830510670        1.8939463988       -2.3902234943
 H         -4.8218435262        0.5760920843       -2.1852823681
 O         -2.7079882640       -0.4176345903       -1.7127060819
 C         -1.7079110731       -1.2981718654       -1.3328695798
 O         -1.3747634224       -2.1087429471       -2.2183003468
 H          0.8134215218        0.1787684398       -0.5959984532
 C          1.4699446935       -0.6376021002       -0.8537775788
 C          1.1439891580       -1.9290115738       -0.4641888382
 C          1.9897154901       -2.9653933081       -0.8407133615
 C          3.1194358716       -2.7058845034       -1.5974008047
 C          3.4461583456       -1.4148942522       -1.9714092329
 C          2.6095562380       -0.3707105529       -1.5944802501
 N          2.8962269463        0.9576347360       -1.9430133731
 S          2.5280346502        2.1837840744       -0.8667922567
 O          1.1119477255        2.4552960985       -0.8740860807
 O          3.3794243065        3.2808155348       -1.2771528685
 C          3.0618472115        1.5694737181        0.7211084631
 C          2.1481773834        1.2123416531        1.6907376137
 C          2.6133461121        0.6872087797        2.8867287500
 C          3.9743454923        0.5297537828        3.0930602671
 C          4.8813234125        0.9028741904        2.1121796841
 C          4.4228671521        1.4246597666        0.9144588786
 H          5.0961656878        1.7360362051        0.1324333780
 H          5.9402065150        0.7849206120        2.2763771718
 H          4.3289410259        0.1163668621        4.0240368748
 H          1.8988739736        0.3988970619        3.6414357409
 H          1.0914928153        1.3344841344        1.5102949467
 H          3.7888871410        1.1008559105       -2.3914366756
 H          4.3304244475       -1.2150923912       -2.5566596887
 H          3.7613733486       -3.5215068206       -1.8933152705
 H          1.7595598939       -3.9770225771       -0.5493411899
 C         -0.0860107253       -2.1307227298        0.3877967198
 H          0.1696701313       -1.8277814966        1.4152302211
 C         -0.5735214013       -3.5647639785        0.4102490636
 C         -0.0316472901       -4.5358300532        1.4152822475
 C         -1.4307389191       -4.0180811154        1.5529441563
 H         -2.2543223484       -4.6850492389        1.3468453300
 H         -1.6373613203       -3.2988597054        2.3321687977
 H          0.1040603624       -5.5643064245        1.1163519569
 H          0.7105303352       -4.1747424646        2.1109679128
 H         -0.8230760420       -3.9326364874       -0.5785300146
 O         -1.1283291644       -0.0216655809        1.9955568793
