  62
        -98.94947902
 C         -0.9701284545       -1.7103391266       -0.2836115112
 C         -2.2604957707       -1.5912813672        0.2808179363
 C         -3.0690157005       -0.4671223586       -0.2029361233
 C         -2.5603259446        0.3724589329       -1.1227581377
 C         -3.2514409485        1.5801487161       -1.6957876048
 C         -3.1498508513        2.8277175321       -0.8064964781
 C         -4.0394701104        2.8152128351        0.4371641644
 H         -4.0611416747        3.8359790016        0.8244599442
 H         -5.0596002190        2.5499669771        0.1560940445
 C         -3.5466877255        1.8814250552        1.5514795712
 H         -3.6076872192        2.4002374780        2.5115799480
 H         -2.4904238532        1.6485468506        1.3920717577
 C         -4.3407330587        0.5822168879        1.6913261555
 H         -3.8656377503       -0.0253418760        2.4659815719
 H         -5.3581430092        0.8102238322        2.0189740903
 C         -4.4203318326       -0.2583670996        0.4111727381
 H         -4.8187206173       -1.2416371323        0.6750863951
 H         -5.0946309596        0.2112842518       -0.3049052904
 H         -3.4252623064        3.6904151905       -1.4181858207
 H         -2.1108829444        2.9574455364       -0.4913216657
 H         -2.7662163961        1.7939446937       -2.6505896217
 H         -4.3011561665        1.3517321262       -1.8836970636
 O         -1.3272091172        0.2035837651       -1.6683658974
 C         -0.4933039086       -0.8222327509       -1.2484377052
 O          0.6212425363       -0.8401910585       -1.8033370005
 H          0.3062886052       -0.3374689402        1.2919324083
 C          1.2285200539       -0.8977301538        1.2661189188
 C          1.2450390079       -2.1867619745        0.7527478930
 C          2.4492497340       -2.8822655177        0.7602082921
 C          3.5989387304       -2.2921798574        1.2551920051
 C          3.5839854945       -0.9906298356        1.7235407976
 C          2.3859232442       -0.2867205318        1.7180125691
 N          2.3131270817        1.0481195856        2.1574538272
 S          1.4882262726        2.1600784952        1.2212452754
 O          1.9452036950        3.4439242442        1.7174580444
 O          0.0660192382        1.9394972617        1.3036106262
 C          2.0497562953        1.9688423981       -0.4614521058
 C          1.1546553186        2.2193765797       -1.4792226098
 C          1.5829438720        2.1298561012       -2.7929364945
 C          2.8975258876        1.7914026587       -3.0664185572
 C          3.7890929756        1.5500087476       -2.0335895274
 C          3.3665604709        1.6442248105       -0.7180117221
 H          4.0476621037        1.4623662791        0.0968929856
 H          4.8116426017        1.2837578822       -2.2484193429
 H          3.2270900907        1.7112516239       -4.0904199623
 H          0.8845415020        2.3111186809       -3.5942016921
 H          0.1341444549        2.4602255542       -1.2279174810
 H          3.1861785754        1.4364141522        2.4847578702
 H          4.4858478903       -0.5248205659        2.0911470048
 H          4.5242738400       -2.8475527325        1.2603032498
 H          2.4856928167       -3.8884661700        0.3753913397
 C         -0.0358076439       -2.7893351777        0.2252748729
 H         -0.5656645032       -3.2680211033        1.0634380329
 C          0.2120817216       -3.8304293270       -0.8496766594
 C          0.3661598342       -5.2781880338       -0.4930270696
 C         -0.8796605339       -4.8035798426       -1.1764642806
 H         -1.0404170572       -5.0718557354       -2.2097483899
 H         -1.7887363154       -4.7365219279       -0.5965501039
 H          0.2945733774       -5.5492533551        0.5496513009
 H          1.0622548966       -5.8773982409       -1.0605458427
 H          0.7972642617       -3.4390521189       -1.6742284162
 O         -2.7134396621       -2.3844415858        1.1517445627
