  62
        -98.94111506
 C         -1.9039448890       -0.9204339912        0.2651113351
 C         -2.3008299858        0.0798685462        1.1867488335
 C         -2.5139648132        1.4247400797        0.6386239050
 C         -2.2663818254        1.6470032653       -0.6647860343
 C         -2.4704434005        2.9588043005       -1.3652835045
 C         -3.8827408607        3.0622845368       -1.9582434836
 C         -4.9931727694        2.6970084135       -0.9731527179
 H         -5.9450121524        2.8327253620       -1.4908464397
 H         -4.9110645634        1.6369036477       -0.7226490034
 C         -4.9913760028        3.5238668701        0.3201565858
 H         -6.0151449164        3.8337904502        0.5394062250
 H         -4.4006254509        4.4296247826        0.1796505504
 C         -4.4800959714        2.7736480677        1.5515314139
 H         -5.0047387109        1.8193440530        1.6439190165
 H         -4.7221351788        3.3672044152        2.4369962482
 C         -2.9712892303        2.4978784246        1.5863994442
 H         -2.4212203689        3.4250062612        1.4102292488
 H         -2.7194369036        2.1372068824        2.5883012384
 H         -4.0320959855        4.0823422875       -2.3165609123
 H         -3.9478585794        2.3871689317       -2.8145590548
 H         -2.2991650327        3.7691918988       -0.6590420756
 H         -1.7366815515        3.0314869520       -2.1700070375
 O         -1.8411089785        0.6768094881       -1.5110169856
 C         -1.6325779903       -0.6229124064       -1.0721746795
 O         -1.2274438449       -1.3940927549       -1.9621597400
 O         -2.4648570730       -0.1432863191        2.4179258967
 C         -1.6193741727       -2.3093145262        0.8114345062
 C         -0.2558628068       -2.7506707069        0.3411766783
 C         -0.0026367038       -3.9486624242       -0.3120374198
 C          1.2756743162       -4.2445224523       -0.7543099112
 C          2.3156071216       -3.3529203404       -0.5716960024
 C          2.0734972685       -2.1551796469        0.0932487070
 C          0.8029063916       -1.8783407974        0.5644918483
 H          0.6232851967       -0.9428438894        1.0765395250
 N          3.1082181647       -1.2272348602        0.3128232261
 S          2.7156256703        0.4151473721        0.3198392987
 O          2.2215893141        0.7650975761        1.6295791974
 O          1.8607614715        0.7448450818       -0.7985259621
 C          4.3364607897        1.1237408344        0.0900597169
 C          5.1736585894        1.2358323500        1.1841563665
 C          6.4453383254        1.7561990548        1.0037214630
 C          6.8569466870        2.1524770815       -0.2602436297
 C          6.0051520541        2.0356768007       -1.3483501198
 C          4.7323456106        1.5146324603       -1.1749992386
 H          4.0315458979        1.4116886895       -1.9882644545
 H          6.3258443074        2.3475847076       -2.3292303365
 H          7.8467107989        2.5580774699       -0.3979461991
 H          7.1090706806        1.8512537423        1.8478025247
 H          4.8048758617        0.9233149945        2.1470943227
 H          3.9209310884       -1.4079401649       -0.2611289085
 H          3.3043360414       -3.5742951610       -0.9438823754
 H          1.4589261358       -5.1752931836       -1.2695800577
 H         -0.8089615275       -4.6375114019       -0.5028772666
 H         -1.5668917368       -2.1623075623        1.9043384691
 C         -2.7171419602       -3.3325617750        0.5652509097
 C         -4.1330611859       -2.9025769610        0.3270235039
 C         -3.3439566367       -3.5283169729       -0.7815201996
 H         -3.5995660245       -4.5330077854       -1.0851812781
 H         -2.9964454188       -2.9010267784       -1.5869090521
 H         -4.9271381588       -3.4737972801        0.7840691423
 H         -4.3297134967       -1.8412042584        0.2775263708
 H         -2.5847602260       -4.2219531834        1.1738531277
