  62
        -98.94012996
 C          2.0353437635        0.6373928110        0.9815915277
 C          2.8691724029        1.1623814786       -0.0368909472
 C          4.2641666972        0.6897877071       -0.0270517371
 C          4.6655752548       -0.1866648124        0.9099607251
 C          6.0356230311       -0.7938249569        0.9897141498
 C          6.1046339496       -2.1123912111        0.2065579178
 C          5.5380599945       -2.0198225960       -1.2103681768
 H          5.6681777487       -2.9989351856       -1.6765874311
 H          4.4631046353       -1.8329690120       -1.1531064399
 C          6.1939258041       -0.9443978856       -2.0878628817
 H          6.3945976880       -1.3712506758       -3.0728583388
 H          7.1538753595       -0.6525472684       -1.6602700420
 C          5.3371406191        0.3034278067       -2.3091746823
 H          4.3419780599        0.0076102181       -2.6504194405
 H          5.7953244447        0.8925121535       -3.1081105722
 C          5.1761321091        1.2262884445       -1.0946105165
 H          6.1578025610        1.4635728726       -0.6798854766
 H          4.7155595766        2.1551872871       -1.4434424842
 H          7.1468069061       -2.4342211782        0.1633992440
 H          5.5375147946       -2.8699016836        0.7527743263
 H          6.7645774489       -0.0874146436        0.5972927987
 H          6.2635898366       -0.9922884141        2.0383904448
 O          3.8390535992       -0.6631508541        1.8763228685
 C          2.5127143029       -0.2734425863        1.9281467219
 O          1.8635283915       -0.7916309019        2.8600869171
 H         -1.5527944877       -0.4712465523        1.9156011955
 C         -1.3554317640       -0.5870926273        0.8583414021
 C         -0.2881600618        0.0886006470        0.2855444570
 C         -0.0397161491       -0.0845479987       -1.0726246824
 C         -0.8366505956       -0.9224346959       -1.8310873291
 C         -1.9001654234       -1.5960344922       -1.2556933994
 C         -2.1605075742       -1.4243378746        0.0968625037
 N         -3.2697382984       -2.0778566118        0.6720355657
 S         -4.7566271091       -1.6922256336       -0.0073515165
 O         -5.7371204571       -1.9972407117        1.0094332994
 O         -4.9011272650       -2.3867426614       -1.2609349618
 C         -4.6514970707        0.0663414994       -0.2825891465
 C         -4.3025991205        0.5441387229       -1.5296085140
 C         -4.1122612672        1.9068520549       -1.6944026944
 C         -4.2729508267        2.7631727176       -0.6166377287
 C         -4.6349811586        2.2686750109        0.6271940382
 C         -4.8195280788        0.9066639443        0.8003397257
 H         -5.1014471064        0.4836035009        1.7515348662
 H         -4.7641933984        2.9388402047        1.4619299081
 H         -4.1115936559        3.8214707936       -0.7447199501
 H         -3.8318238120        2.2949046516       -2.6603347094
 H         -4.1902800559       -0.1533005040       -2.3430326714
 H         -3.3139739611       -1.9801496970        1.6765570192
 H         -2.5367744300       -2.2471823591       -1.8328393169
 H         -0.6297109686       -1.0511666751       -2.8827373425
 H          0.7801446901        0.4516829905       -1.5255200963
 C          0.5666852919        1.0026349881        1.1245440435
 H          0.3268119506        0.8020413759        2.1805697119
 C          0.2828286290        2.4775501437        0.8675298329
 C         -0.5703044433        2.9751799915       -0.2571801992
 C         -1.0858321485        3.0247659374        1.1472386479
 H         -1.1703476556        3.9812038249        1.6399293232
 H         -1.8550168061        2.3164294566        1.4174737844
 H         -1.0046297114        2.2535816414       -0.9309235197
 H         -0.2717102722        3.8947907424       -0.7361536508
 H          1.1227549362        3.1050476588        1.1454532286
 O          2.4915595699        1.9783542220       -0.9150069605
