  62
        -98.93970872
 C         -2.2707361889       -0.9200915757        0.6479818458
 C         -3.4031757295       -0.8479070805       -0.2001275392
 C         -4.3563346554        0.2349201345        0.0902890864
 C         -4.1135016097        1.0811527186        1.1064346689
 C         -4.9689679958        2.2602943035        1.4672944068
 C         -4.5055904076        3.5292374481        0.7381471804
 C         -4.3010390266        3.3393361179       -0.7649747182
 H         -4.0052424893        4.3067338982       -1.1767969209
 H         -3.4654059249        2.6539182354       -0.9263877163
 C         -5.5362295529        2.8199722369       -1.5140732033
 H         -5.6591490872        3.4008740940       -2.4305173347
 H         -6.4294386441        2.9770303838       -0.9084271810
 C         -5.4553134272        1.3490134436       -1.9258649017
 H         -4.5143734336        1.1668668295       -2.4510436979
 H         -6.2677828136        1.1476627226       -2.6289794725
 C         -5.5746727901        0.3307517368       -0.7851849497
 H         -6.4611773542        0.5497746477       -0.1869817006
 H         -5.6979157677       -0.6584813543       -1.2351032480
 H         -5.2434596292        4.3148917962        0.9107723420
 H         -3.5568127576        3.8516488645        1.1738588809
 H         -6.0045280924        2.0411836766        1.2143387438
 H         -4.8932244916        2.4223928247        2.5438215676
 O         -3.0191555698        0.9792828080        1.9045366426
 C         -2.0794938448       -0.0147774548        1.6966914095
 O         -1.1339836164        0.0023479520        2.5123021784
 H          1.3780976244       -1.1666200892        0.7336574149
 C          1.0669110083       -1.2074111921       -0.2998817465
 C         -0.2284357338       -1.5919909970       -0.6170706663
 C         -0.6134959068       -1.6147826466       -1.9537341123
 C          0.2821427663       -1.2550028864       -2.9437410281
 C          1.5714549435       -0.8680463744       -2.6242095545
 C          1.9677962010       -0.8458884893       -1.2918370711
 N          3.2873284261       -0.5008391156       -0.9495883360
 S          3.5754400963        0.3487134149        0.4807639121
 O          3.5129718929       -0.5714573138        1.5879964923
 O          2.7194934164        1.5124840373        0.5502597287
 C          5.2697159986        0.8363997637        0.2106777008
 C          5.5583972482        2.1295986436       -0.1811435916
 C          6.8794288615        2.4810907635       -0.4120945039
 C          7.8830722101        1.5379431225       -0.2511809033
 C          7.5778617846        0.2435453020        0.1433824556
 C          6.2598058959       -0.1137760451        0.3777399909
 H          5.9752032952       -1.1033903637        0.6947949682
 H          8.3609662137       -0.4863869193        0.2701390623
 H          8.9099176766        1.8141106655       -0.4316386547
 H          7.1197451707        3.4874320180       -0.7151027633
 H          4.7456982943        2.8303766857       -0.2863242075
 H          3.7893924650       -0.0846859892       -1.7228532172
 H          2.2681837426       -0.5870033685       -3.3995030104
 H         -0.0290442337       -1.2712243894       -3.9774404605
 H         -1.6248500951       -1.8940565794       -2.2044448103
 C         -1.1822483894       -1.9713644575        0.4911595489
 H         -0.6156364239       -1.9490346080        1.4325942531
 C         -1.7261450855       -3.3734686590        0.2956102880
 C         -0.8324493059       -4.5391321865        0.5888096122
 C         -1.9848601226       -4.2304377389        1.4960385028
 H         -2.8424476774       -4.8861878697        1.4852457025
 H         -1.7708181278       -3.8073082158        2.4672698836
 H          0.1643156926       -4.3250037939        0.9455400330
 H         -0.8963889151       -5.4098377189       -0.0453251320
 H         -2.4152761890       -3.4594752507       -0.5333822635
 O         -3.6335772653       -1.6366453850       -1.1539925765
