  62
        -98.94486014
 C         -1.9085657626       -1.0500523272       -0.2395090634
 C         -3.0404192672       -1.1688547859        0.6111485460
 C         -4.2841987490       -0.5597122762        0.1313368303
 C         -4.3054043629        0.0535824392       -1.0655623342
 C         -5.5005735047        0.7027061951       -1.7086993755
 C         -5.7585989054        2.1409301629       -1.2389137327
 C         -6.3109226439        2.2724636863        0.1810590189
 H         -6.6505766229        3.3035150772        0.2981077187
 H         -7.1837618921        1.6281840520        0.2913731376
 C         -5.2940096907        1.9598678225        1.2878492953
 H         -4.2830653085        1.9920091230        0.8744127856
 H         -5.3468722895        2.7315265142        2.0592413432
 C         -5.5031160297        0.6128248715        1.9798734138
 H         -6.4564684092        0.6189679524        2.5128710320
 H         -4.7061465805        0.4794720392        2.7158137140
 C         -5.4809677046       -0.5940186958        1.0329075034
 H         -5.4163562449       -1.5024226485        1.6367899396
 H         -6.3984909346       -0.6284616540        0.4458159564
 H         -6.4803791023        2.5842338384       -1.9288887098
 H         -4.8285294412        2.7082529971       -1.3219519590
 H         -6.3881706568        0.0954961786       -1.5285103319
 H         -5.3041094925        0.7214970426       -2.7828920499
 O         -3.2069807746        0.1345116808       -1.8592260794
 C         -1.9836049063       -0.3918977907       -1.4668443939
 O         -1.0781519748       -0.2065065841       -2.3056045146
 O         -3.0116770070       -1.7686485601        1.7180749777
 C         -0.6156017398       -1.6739564254        0.2596501631
 C          0.3194942323       -0.6239737266        0.8099460183
 C          0.5754341105       -0.5449636968        2.1739298337
 C          1.4477558656        0.4056158883        2.6757993667
 C          2.0830315459        1.2946547667        1.8278579905
 C          1.8266181393        1.2282045961        0.4643769686
 C          0.9575249346        0.2711182237       -0.0375195941
 H          0.7515254485        0.2361582785       -1.0967795737
 N          2.4806669934        2.1228411395       -0.4086147239
 S          4.1560976022        2.0620434649       -0.3676875928
 O          4.6283006809        2.7820197691        0.7884341033
 O          4.5990726630        2.5607584511       -1.6501520985
 C          4.5267388295        0.3256703578       -0.1989063607
 C          4.9174584929       -0.1794851581        1.0243219677
 C          5.1156653346       -1.5450170987        1.1514414223
 C          4.9174173548       -2.3767779280        0.0606582840
 C          4.5296042252       -1.8526676126       -1.1629696227
 C          4.3259212521       -0.4891606269       -1.2952893815
 H          4.0256273255       -0.0462054960       -2.2316799388
 H          4.3807989338       -2.4999989174       -2.0125306046
 H          5.0669749834       -3.4400553892        0.1631193594
 H          5.4185097324       -1.9556150687        2.1010347363
 H          5.0621634657        0.5022585311        1.8460174202
 H          2.1532308562        2.0461218161       -1.3614452064
 H          2.7707326577        2.0387357341        2.1963285543
 H          1.6354659970        0.4545192283        3.7374753982
 H          0.0751083106       -1.2300092941        2.8428135564
 H         -0.9190656224       -2.3192711229        1.0947225627
 C          0.0803948456       -2.5305697169       -0.7803837877
 C          1.1048602393       -3.5257407357       -0.3278629522
 C         -0.2207821207       -3.9964451051       -0.8447176978
 H         -0.2610337390       -4.4708257696       -1.8138253758
 H         -0.9348619680       -4.3919201997       -0.1371692706
 H          1.9798460526       -3.6768868894       -0.9401749706
 H          1.2915444043       -3.6008129794        0.7324275832
 H          0.2523553394       -2.0194181716       -1.7183367247
