  62
        -98.93755787
 C          1.3261691207        1.7940657898        0.2432653087
 C          1.5189619300        0.8297801791       -0.7716271808
 C          2.5848833597       -0.1691091512       -0.5441069106
 C          3.2674527001       -0.1513671407        0.6146111992
 C          4.3741116899       -1.0633207909        1.0809063793
 C          4.2054247192       -2.5655214410        0.8054444403
 C          5.1507374187       -3.0965134420       -0.2736371798
 H          6.1251563789       -2.6195387623       -0.1488973004
 H          5.2912532283       -4.1685692319       -0.1188000992
 C          4.6719215283       -2.8974145826       -1.7106438897
 H          5.4896616979       -3.1870254133       -2.3748471798
 H          3.8372885479       -3.5729709324       -1.9111481190
 C          4.2360592687       -1.4735920827       -2.0623542404
 H          4.3138093984       -1.3590746033       -3.1457321205
 H          4.9139141891       -0.7460159227       -1.6171473410
 C          2.7872112989       -1.1571908719       -1.6614002701
 H          2.2587755588       -0.7218599222       -2.5154614202
 H          2.2559755387       -2.0841065015       -1.4247620394
 H          3.1723902991       -2.7869229408        0.5417750707
 H          4.4223452794       -3.0986729305        1.7323622505
 H          4.4452059903       -0.8900424403        2.1571604792
 H          5.3147293599       -0.7121868315        0.6488902488
 O          3.0326270808        0.7861261899        1.5761978487
 C          2.0826944411        1.7743135902        1.4191327485
 O          2.0021704717        2.5652978308        2.3782524780
 O          0.8488119096        0.7808148188       -1.8382284805
 C          0.2644595711        2.8826605201        0.1559218184
 C         -1.0798553891        2.2410710108        0.3985351493
 C         -1.6316169686        2.2274495717        1.6756932795
 C         -2.8122969388        1.5516730523        1.9283847103
 C         -3.4512677294        0.8500344820        0.9208219209
 C         -2.8985941898        0.8482508911       -0.3528037693
 C         -1.7402465197        1.5642097105       -0.6156300601
 H         -1.3142557100        1.5396091597       -1.6060783303
 N         -3.4869646405        0.0607855807       -1.3623488187
 S         -3.7400628210       -1.5434079490       -0.9451848076
 O         -3.5462100517       -2.3016462797       -2.1617120273
 O         -5.0408827908       -1.6733492681       -0.3350067971
 C         -2.4854535807       -1.9482847087        0.2636928322
 C         -1.1588867707       -1.6901051994       -0.0217228784
 C         -0.2023700805       -1.9773993292        0.9386156714
 C         -0.5788167003       -2.5271213284        2.1539088619
 C         -1.9128457303       -2.7929110377        2.4194466525
 C         -2.8762619805       -2.4950293779        1.4694807726
 H         -3.9262980305       -2.6683025774        1.6405767831
 H         -2.2043389401       -3.2214530671        3.3646934828
 H          0.1739649699       -2.7437928182        2.8954610017
 H          0.8331499095       -1.7501547997        0.7365035009
 H         -0.8745622409       -1.2585183601       -0.9688713888
 H         -2.9897848508        0.1161993100       -2.2406270589
 H         -4.3555702196        0.2916144725        1.1030708415
 H         -3.2310855785        1.5565003531        2.9229659204
 H         -1.1120674982        2.7357256720        2.4753536790
 H          0.4703084117        3.5652097905        0.9903332080
 C          0.3326451810        3.6676054594       -1.1376221220
 C         -0.3856432586        4.9791941596       -1.2287103626
 C          1.1115744214        4.9465012790       -1.1757021930
 H          1.6660076212        5.1852602983       -2.0709653134
 H          1.5976527419        5.2643276394       -0.2647134134
 H         -0.8622719688        5.2431948892       -2.1603137026
 H         -0.9162705881        5.3185890003       -0.3519891326
 H          0.3650338404        3.0480378688       -2.0239841717
