  62
        -98.93916380
 C          1.8545731091        0.8649034254       -0.1988372534
 C          2.4541525301        0.2566629208        0.9266944426
 C          3.5465283513       -0.6958513419        0.6614414976
 C          3.9008264648       -0.9546112252       -0.6114580547
 C          4.9350407379       -1.9010117789       -1.1850046890
 C          6.0072688308       -2.5226592920       -0.2938467496
 C          7.0316625335       -1.5327814669        0.2600160411
 H          7.6807598251       -2.0675092141        0.9569351108
 H          7.6523527256       -1.1773014398       -0.5663134338
 C          6.4521288355       -0.3066456565        0.9609430700
 H          7.2883668878        0.3120791422        1.2975838611
 H          5.8798899511        0.2882072241        0.2461149204
 C          5.5749155724       -0.6020418675        2.1758159155
 H          6.1232652994       -1.2285932715        2.8819254182
 H          5.3637953162        0.3509172248        2.6683910540
 C          4.2249052347       -1.2737416054        1.8702775317
 H          3.5561556937       -1.0864198559        2.7156699645
 H          4.3321000039       -2.3516370419        1.7730768363
 H          5.5471408241       -3.0868002654        0.5121592458
 H          6.5471877920       -3.2429072783       -0.9146528044
 H          4.3662919313       -2.7098026004       -1.6575299931
 H          5.4202692336       -1.3523827754       -1.9985573017
 O          3.2670899021       -0.3671223586       -1.6689143915
 C          2.2418404963        0.5496907770       -1.4999485620
 O          1.7723898180        0.9963666155       -2.5626409889
 O          2.0827481367        0.4869544656        2.1100120470
 C          0.7310091056        1.8631427289        0.0116464943
 C         -0.5410401916        1.3513316393       -0.6187179532
 C         -1.3603277702        2.1240189770       -1.4303901710
 C         -2.5102590407        1.5849836550       -1.9827705241
 C         -2.8735204255        0.2755514440       -1.7311269061
 C         -2.0724006754       -0.4997041246       -0.9011560532
 C         -0.9234478163        0.0425662448       -0.3476491287
 H         -0.2992832313       -0.5650757186        0.2960799483
 N         -2.4416331992       -1.8259946330       -0.6212302162
 S         -4.0454648635       -2.1343719406       -0.2566390598
 O         -4.0230872228       -3.3128919003        0.5813060960
 O         -4.8078531081       -2.2453351062       -1.4753036248
 C         -4.5974846910       -0.7144635124        0.6723032075
 C         -5.6309788802        0.0639726042        0.1927261878
 C         -6.0215192427        1.1794583699        0.9162793604
 C         -5.3719752150        1.4975478616        2.0986435049
 C         -4.3373321998        0.7032841719        2.5693727511
 C         -3.9442479544       -0.4141825814        1.8513310099
 H         -3.1458866055       -1.0534113622        2.1936524056
 H         -3.8323216040        0.9514652262        3.4892016380
 H         -5.6728037764        2.3687206160        2.6588449548
 H         -6.8268534259        1.7975620850        0.5536927238
 H         -6.1060271173       -0.2181421162       -0.7326736938
 H         -1.8198188015       -2.3006853100        0.0160482697
 H         -3.7541134555       -0.1637995826       -2.1707920594
 H         -3.1301043620        2.1932158646       -2.6233880182
 H         -1.0937141582        3.1461021796       -1.6419147607
 H          0.5782094195        1.9030202424        1.1005543572
 C          1.1421637242        3.2373101687       -0.4725973828
 C          0.5603774037        4.4657228235        0.1588743925
 C          1.9883067374        4.0941403307        0.4192607500
 H          2.7694414635        4.6902517546       -0.0282386361
 H          2.2466405437        3.6961743228        1.3898593995
 H          0.3618846570        5.3225827251       -0.4669872840
 H         -0.1519274933        4.3271950809        0.9578496816
 H          1.3574614455        3.2568590093       -1.5350153642
