  62
        -98.94150656
 C          2.3854622189        1.2279593383        0.1677663210
 C          3.3208539587        0.5569045473        0.9957838019
 C          4.1079929659       -0.5082358878        0.3609972739
 C          3.8832950097       -0.8079079836       -0.9310578150
 C          4.5708529409       -1.9055877750       -1.6891707420
 C          3.7845356680       -3.2207569087       -1.5968478970
 C          3.3809350226       -3.6005903787       -0.1719834126
 H          2.6604859198       -2.8680547326        0.2007154833
 H          2.8601725852       -4.5592657281       -0.2262013143
 C          4.5533035941       -3.7082426390        0.8135065820
 H          4.4282307296       -4.6162284474        1.4070842074
 H          5.4899953886       -3.8067663396        0.2639355302
 C          4.6637111903       -2.5430456313        1.7986713564
 H          3.6977286688       -2.3813066538        2.2840634558
 H          5.3775520179       -2.8233624319        2.5776496841
 C          5.1348485406       -1.2091337354        1.2056805593
 H          5.3493160884       -0.5337736286        2.0391003920
 H          6.0567035851       -1.3630437752        0.6412846904
 H          2.8749134249       -3.1240742394       -2.1948095299
 H          4.3920723603       -4.0178056178       -2.0291627713
 H          4.6411289973       -1.6082429224       -2.7367988366
 H          5.5746466812       -2.0413880408       -1.2911605545
 O          2.9545871956       -0.1688701232       -1.6856232525
 C          2.1718023736        0.8535102634       -1.1601746897
 O          1.3507986553        1.3225426800       -1.9690458968
 O          3.4847857828        0.8323567571        2.2147118453
 C          1.5480871809        2.3256032184        0.8007305160
 C          0.0908500382        2.1175235911        0.4714218343
 C         -0.6993687453        3.0567210755       -0.1764526347
 C         -2.0258578556        2.7791900065       -0.4584463014
 C         -2.5927571515        1.5703200140       -0.1004175573
 C         -1.8095171152        0.6200043431        0.5418918356
 C         -0.4842998856        0.9040635620        0.8301557365
 H          0.1276499674        0.1601792604        1.3273945990
 N         -2.3751603747       -0.6113994549        0.9181543427
 S         -3.2591385098       -1.4695262332       -0.2239962529
 O         -3.1772750922       -2.8498311564        0.2040310291
 O         -2.8191241824       -1.1865637077       -1.5700821600
 C         -4.9254006546       -0.8890382932        0.0156603530
 C         -5.4813666868       -1.0106983367        1.2741556249
 C         -6.7776251728       -0.5660104009        1.4788105873
 C         -7.4926764744       -0.0122955551        0.4271726957
 C         -6.9217782424        0.0990701561       -0.8313519463
 C         -5.6250803767       -0.3436182994       -1.0426952750
 H         -5.1379429081       -0.2731631453       -2.0024951140
 H         -7.4791555879        0.5290540938       -1.6479620747
 H         -8.5011707497        0.3340830313        0.5890456490
 H         -7.2251099699       -0.6517127336        2.4558828158
 H         -4.8929212043       -1.4502829421        2.0620121609
 H         -1.7282023009       -1.2241305213        1.3935124487
 H         -3.6230204869        1.3493652742       -0.3263021582
 H         -2.6268650827        3.5156421933       -0.9697499803
 H         -0.2708075713        3.9954952933       -0.4858559674
 H          1.6726307575        2.1677215677        1.8856898180
 C          2.0400642638        3.7363826683        0.5155945884
 C          3.4836814719        4.0048395648        0.2153687324
 C          2.4501308687        4.1859859781       -0.8535348482
 H          2.2008326085        5.1922148277       -1.1575134718
 H          2.3998284064        3.4638177747       -1.6529857334
 H          3.9420846126        4.8830085199        0.6447237909
 H          4.1476621313        3.1553001737        0.1459042185
 H          1.5374178091        4.4707929665        1.1374780281
