  62
        -98.93709397
 C          1.2222086099        1.4259894093        0.5540094811
 C          2.0593897801        1.0010486495       -0.5056334688
 C          3.1787410197        0.1142012889       -0.1379105789
 C          3.3253556991       -0.2793074818        1.1379270209
 C          4.4123944585       -1.1330333825        1.7419407008
 C          4.8529431684       -2.3793634623        0.9627576203
 C          3.7418199084       -3.0729540514        0.1607707996
 H          3.7456074279       -4.1388144716        0.3979467090
 H          2.7630013084       -2.6841552912        0.4504805394
 C          3.9187344090       -2.9297997207       -1.3528527603
 H          4.9708859590       -3.0896089209       -1.5998687600
 H          3.3418980289       -3.7156881402       -1.8466575409
 C          3.4618344997       -1.5966197102       -1.9430716997
 H          2.3713606297       -1.5255199898       -1.8891160401
 H          3.7306826601       -1.5876871397       -3.0022446996
 C          4.0475090699       -0.3416818508       -1.2745063389
 H          5.0742381997       -0.5070542713       -0.9568878086
 H          4.0344287505        0.4671449596       -2.0100903284
 H          5.6666673087       -2.1190127022        0.2871313608
 H          5.2627540278       -3.0784150828        1.6938697301
 H          5.2843839387       -0.4965045230        1.9196561915
 H          4.0266415481       -1.4319130129        2.7197021805
 O          2.4593921189        0.1063255980        2.1179992808
 C          1.3821337593        0.9323773785        1.8493375309
 O          0.6454993090        1.1484969783        2.8337759707
 H         -0.6586672205       -0.2155835097       -0.0370006905
 C         -1.0758809400        0.3978563809       -0.8211165203
 C         -0.7971522495        1.7580736508       -0.8405853795
 C         -1.3050656888        2.5215258115       -1.8829430592
 C         -2.0635358887        1.9262531024       -2.8769255498
 C         -2.3512126692        0.5739706324       -2.8439370006
 C         -1.8450398398       -0.1987945883       -1.8046908909
 N         -2.1037668004       -1.5754383983       -1.7215022417
 S         -2.2664551412       -2.2865361490       -0.2187140322
 O         -0.9758986815       -2.4698776498        0.3979859882
 O         -3.0154204515       -3.4982005586       -0.4774610131
 C         -3.2694736111       -1.1478261791        0.7207973781
 C         -2.7453194112       -0.4658248299        1.7993537187
 C         -3.5467042911        0.4454917100        2.4696911789
 C         -4.8515468609        0.6573393707        2.0538491985
 C         -5.3679435608       -0.0434188785        0.9741368579
 C         -4.5709104909       -0.9525398884        0.2990898777
 H         -4.9400396008       -1.5229638578       -0.5376005927
 H         -6.3850021206        0.1191604321        0.6561012477
 H         -5.4681656208        1.3712587607        2.5765703687
 H         -3.1362045912        0.9874590194        3.3070587093
 H         -1.7241682714       -0.6421958605        2.1014878689
 H         -2.7674788803       -1.9328580776       -2.3921225221
 H         -2.9461258991        0.1155622031       -3.6187059011
 H         -2.4428817582        2.5280679929       -3.6887256896
 H         -1.0909405384        3.5763168315       -1.9317528586
 C          0.0118568503        2.3098904799        0.3087479011
 H         -0.6030566600        2.1948425996        1.2179451408
 C          0.3202583209        3.7948852498        0.1848337320
 C          1.5988031310        4.3705289691        0.7152304128
 C          1.3541077415        4.3240330899       -0.7616054073
 H          1.1507606520        5.2528551703       -1.2745279969
 H          1.8991942814        3.6053272501       -1.3518993575
 H          1.5613169111        5.3259652888        1.2170984233
 H          2.3205301806        3.6844727186        1.1353275827
 H         -0.5672972489        4.4044251001        0.3234171721
 O          1.9005889407        1.3449633703       -1.7047871887
