  62
        -98.93251767
 C         -1.7241619330       -0.1628854877       -0.8318593310
 C         -2.8912328153        0.6326451015       -0.9227210448
 C         -4.1668569233       -0.0331671487       -0.5839777506
 C         -4.1684211254       -1.3203658134       -0.1943709295
 C         -5.3054813033       -2.2495524903        0.1765699418
 C         -6.6909775859       -1.6985878191        0.5045994177
 C         -6.7619786889       -0.8576300371        1.7784864409
 H         -7.7721950369       -0.4505794252        1.8615693971
 H         -6.5955783638       -1.5121519926        2.6378429132
 C         -5.7565721183        0.2877179235        1.8699847358
 H         -5.9284192777        0.8079250978        2.8163253869
 H         -4.7423741489       -0.1156161251        1.9058317408
 C         -5.8399543891        1.3224312978        0.7492385664
 H         -5.1933024675        2.1592899256        1.0264944653
 H         -6.8610913061        1.7011181249        0.6732525678
 C         -5.3917157152        0.8338401561       -0.6396715083
 H         -6.1986078168        0.3239264467       -1.1605293711
 H         -5.1200789483        1.7114828672       -1.2335440166
 H         -7.0857348066       -1.1413914559       -0.3398776855
 H         -7.3437784978       -2.5645981262        0.6447627767
 H         -5.4021672970       -2.9511550828       -0.6594752970
 H         -4.9426558155       -2.8339404341        1.0280066409
 O         -3.0147644604       -2.0477819990       -0.1219070334
 C         -1.7847905655       -1.4979754781       -0.4272096074
 O         -0.8282429128       -2.2901921492       -0.3088194243
 H          2.1629046090       -0.0393354413       -0.2293080146
 C          1.6293780492        0.6805786714        0.3713813008
 C          0.3136915951        0.9894902845        0.0605202618
 C         -0.3690761189        1.8966108578        0.8640633809
 C          0.2606947175        2.4810339114        1.9478440918
 C          1.5834803161        2.1934666454        2.2358464149
 C          2.2746959493        1.2890208086        1.4386974888
 N          3.6133622568        0.9697782414        1.6998693396
 S          4.6741017424        0.7208250478        0.4282380206
 O          5.9815177140        0.9795107384        0.9914366908
 O          4.3087963003        1.5076438926       -0.7256480945
 C          4.5313560674       -1.0164825502        0.0707840315
 C          4.2492385576       -1.4337655071       -1.2145736685
 C          4.1521476722       -2.7920326514       -1.4723430395
 C          4.3403247831       -3.7039503293       -0.4455690285
 C          4.6276031776       -3.2687201697        0.8394225825
 C          4.7252894479       -1.9123617166        1.1034109932
 H          4.9492547188       -1.5358579605        2.0875563138
 H          4.7722248960       -3.9823159330        1.6345519511
 H          4.2607257708       -4.7601553814       -0.6490478881
 H          3.9264524617       -3.1320525208       -2.4704265064
 H          4.1042025141       -0.6915580802       -1.9843542039
 H          4.0375974374        1.4845551883        2.4573553703
 H          2.0775428179        2.6641675311        3.0722926955
 H         -0.2799557138        3.1811755564        2.5670186857
 H         -1.3910284490        2.1474502269        0.6244355106
 C         -0.3300534513        0.3525645637       -1.1439052375
 H          0.2583671848       -0.5465674562       -1.3885446771
 C         -0.2814845005        1.2604483844       -2.3660808810
 C         -0.0789344611        2.7405702675       -2.2936192050
 C          1.0202949562        1.8628936581       -2.8078010569
 H          1.2456681592        1.8827491759       -3.8637587031
 H          1.8872777305        1.7240370256       -2.1770098287
 H         -0.6282784838        3.3554359945       -2.9900971150
 H          0.0427501913        3.1919532116       -1.3216565888
 H         -0.9415252037        0.9074770533       -3.1524901780
 O         -2.8987804631        1.8406969299       -1.2700128117
