  62
        -98.93897726
 C         -0.9457772601       -1.2491932792       -0.2746226501
 C         -1.9883484899       -1.4416311194        0.6675882001
 C         -2.9346543499       -0.3302451394        0.8579112105
 C         -2.7586729400        0.7979996607        0.1490524406
 C         -3.6332884001        2.0209738707        0.1379844211
 C         -4.6768813603        1.9332572709       -0.9888055887
 C         -5.9749753902        1.2197030908       -0.6134436686
 H         -6.5441518501        1.8477175106        0.0751770717
 H         -6.5657172904        1.1172242809       -1.5267661885
 C         -5.8013017401       -0.1643266593        0.0171450911
 H         -5.0338292902       -0.7212234392       -0.5236802991
 H         -6.7401865301       -0.7083051893       -0.1042712787
 C         -5.4492122697       -0.1066629396        1.5110583711
 H         -6.1348339696       -0.7478320597        2.0691073811
 H         -5.6090372897        0.9075194803        1.8762219113
 C         -4.0274412297       -0.5661240496        1.8647422907
 H         -3.7307983395       -0.1098662798        2.8149315407
 H         -4.0250667796       -1.6487503897        2.0262422905
 H         -4.2109587905        1.4267340210       -1.8379358489
 H         -4.9304343404        2.9451033209       -1.3114682885
 H         -2.9765636501        2.8677203707       -0.0665139389
 H         -4.1078870599        2.1659288905        1.1037026912
 O         -1.7397078202        0.9489175909       -0.7378871496
 C         -0.8141434803       -0.0524244991       -0.9796349299
 O          0.0416762995        0.2628688811       -1.8297717101
 O         -2.1316423097       -2.5136893895        1.3161231999
 C          0.0176380299       -2.4090713292       -0.4575470505
 C          1.2458862900       -2.2401211693        0.4049185992
 C          1.6188451703       -3.2220377795        1.3148257190
 C          2.7505970704       -3.0623748996        2.0947169488
 C          3.5248655504       -1.9222359995        1.9850210288
 C          3.1542643802       -0.9288436694        1.0833473291
 C          2.0235486200       -1.0955784993        0.2973713293
 H          1.7526196298       -0.3321512091       -0.4136812405
 N          3.8865145201        0.2572621506        1.0007916091
 S          3.7617612299        1.3454432209       -0.2513311407
 O          3.8233112296        0.6975605611       -1.5401828908
 O          4.8284114699        2.2911800708        0.0137977693
 C          2.2072140799        2.1765603208       -0.0059974402
 C          1.5931635297        2.7556703110       -1.0971516400
 C          0.4284430897        3.4811367209       -0.9056821296
 C         -0.1001043700        3.6114914107        0.3679261706
 C          0.5211394302        3.0129157505        1.4526823503
 C          1.6900121902        2.2927103606        1.2685840299
 H          2.1946136904        1.8164248004        2.0931836897
 H          0.0979619904        3.1043380603        2.4404543404
 H         -1.0035629000        4.1820561406        0.5178118109
 H         -0.0652396905        3.9307699011       -1.7523186194
 H          2.0252816494        2.6141249611       -2.0747356201
 H          4.7616268003        0.2958273706        1.4987599789
 H          4.4060197005       -1.7939051196        2.5945448786
 H          3.0327413506       -3.8326842397        2.7961736386
 H          1.0094032103       -4.1077105295        1.4163759690
 H         -0.5244606000       -3.2940861692       -0.0963306106
 C          0.4255202496       -2.6533868489       -1.8971196307
 C          0.8457680495       -4.0310288988       -2.3097809610
 C         -0.4615426706       -3.4719262588       -2.7840406106
 H         -0.5589805909       -3.1847683986       -3.8201969805
 H         -1.3702292705       -3.8669985489       -2.3531890205
 H          1.6519418693       -4.1300288387       -3.0204611812
 H          0.8209942297       -4.8088963290       -1.5616551011
 H          0.9428534094       -1.8148962888       -2.3459479206
