  62
        -98.93814800
 C         -2.5391626136       -0.2176444834        0.0221258801
 C         -2.3480998057        0.8025861285        0.9792196811
 C         -2.1024551715        2.1648742321        0.4696942821
 C         -2.0944519860        2.3646784872       -0.8613491207
 C         -1.8591074515        3.6472560403       -1.6154062452
 C         -0.3765652400        4.0439562611       -1.6673494323
 C          0.3636523184        3.9340019347       -0.3373483659
 H          0.3332583772        2.8974750207        0.0059910625
 H          1.4151141542        4.1690764459       -0.5248764203
 C         -0.1319639757        4.8682961900        0.7644822081
 H         -0.0614650711        5.9007839483        0.4142753647
 H          0.5511802986        4.7561117908        1.6105124223
 C         -1.5551242930        4.6243506443        1.2730349840
 H         -2.2953049443        5.0360057887        0.5920501747
 H         -1.6607482804        5.1711808082        2.2146674446
 C         -1.8796056032        3.1656487512        1.5774966912
 H         -1.0858022570        2.7442197929        2.2066673618
 H         -2.7857591275        3.1277132992        2.1944941220
 H         -0.3069177350        5.0664081592       -2.0438651205
 H          0.1260241872        3.3827616952       -2.3773545145
 H         -2.4579775572        4.4467928819       -1.1893805815
 H         -2.2085076152        3.4755209747       -2.6360919264
 O         -2.2936101617        1.3488629893       -1.7499953938
 C         -2.4760263526        0.0404369899       -1.3458567543
 O         -2.5830521320       -0.7787409423       -2.2795071304
 O         -2.3769971352        0.5881587516        2.2241507045
 C         -2.7004962221       -1.6506248055        0.4910981977
 C         -1.5180675854       -2.4766586201        0.0416613346
 C         -1.6185968187       -3.8048525430       -0.3518123001
 C         -0.4872323983       -4.5077440923       -0.7311256022
 C          0.7582321601       -3.9082543902       -0.7306841472
 C          0.8686469673       -2.5757419844       -0.3442044862
 C         -0.2622801657       -1.8836293532        0.0523052386
 H         -0.1642223169       -0.8558428561        0.3689861318
 N          2.1080754806       -1.9175194952       -0.3894908112
 S          2.3415214886       -0.4664114187        0.4286385734
 O          2.0543260079       -0.6276373195        1.8381537808
 O          1.6314243684        0.5811791226       -0.2595573165
 C          4.0971505751       -0.2665702945        0.1911300656
 C          4.9676799567       -0.7785556994        1.1350181937
 C          6.3322106553       -0.6487789419        0.9298991558
 C          6.8010800916       -0.0136169696       -0.2103233212
 C          5.9156158177        0.4977855673       -1.1473695838
 C          4.5499076953        0.3708799929       -0.9480686775
 H          3.8227105893        0.7582478974       -1.6428611600
 H          6.2830801399        0.9945676800       -2.0307480950
 H          7.8632703197        0.0864819395       -0.3680995175
 H          7.0226988759       -1.0417080236        1.6586153846
 H          4.5571261404       -1.2523800288        2.0122064957
 H          2.9039523785       -2.5361011892       -0.3280338818
 H          1.6359121364       -4.4569692753       -1.0353344828
 H         -0.5784350421       -5.5400133925       -1.0334285569
 H         -2.5817038136       -4.2885100712       -0.3634159599
 H         -2.6772445421       -1.6016430830        1.5913829249
 C         -4.0338547063       -2.2207995022        0.0548834600
 C         -4.7428767909       -3.2306016601        0.9058253874
 C         -5.2675870596       -1.8305720466        0.8106917126
 H         -6.1771514116       -1.6534685797        0.2569187425
 H         -5.1390303916       -1.1758296898        1.6605508374
 H         -5.2976886438       -4.0173209431        0.4172171035
 H         -4.2678830331       -3.5295407511        1.8281696895
 H         -4.1131494470       -2.3083949729       -1.0226912526
