  62
        -98.94401569
 C         -2.2086657072       -1.2521160339       -0.1692829920
 C         -2.6190933964       -0.1524523946       -0.9604552826
 C         -3.9978902029        0.3102077580       -0.7437412467
 C         -4.7766303807       -0.3273398967        0.1492052994
 C         -6.1766444726        0.0757380373        0.5091131334
 C         -6.1847791884        1.0465180457        1.6983879984
 C         -5.2106199820        2.2152827265        1.5489870357
 H         -5.3253616156        2.8490011475        2.4310926059
 H         -4.1874015827        1.8324421323        1.5600935692
 C         -5.4200955240        3.0586535771        0.2835698855
 H         -5.3706667426        4.1153126825        0.5549151038
 H         -6.4151398747        2.8753261006       -0.1236354616
 C         -4.3753599135        2.8312645904       -0.8107376842
 H         -3.3721568210        2.9229314032       -0.3859748884
 H         -4.4871667391        3.6225677567       -1.5569356795
 C         -4.4644154804        1.4897970485       -1.5492734478
 H         -5.4835486657        1.3343141299       -1.9091141723
 H         -3.7979219008        1.5436232814       -2.4151756223
 H         -5.9169160726        0.4913058344        2.6002776938
 H         -7.1989444126        1.4299267741        1.8242905790
 H         -6.7344566133       -0.8220211291        0.7807330287
 H         -6.6500786030        0.5383989145       -0.3545758345
 O         -4.3534037791       -1.3952245166        0.8725975502
 C         -3.0594844296       -1.8723398853        0.7460683568
 O         -2.7904910068       -2.8372552502        1.4895765004
 O         -1.8781916196        0.4146770701       -1.8054906056
 C         -0.7929216917       -1.7906580742       -0.2879983833
 C          0.1817509865       -0.6961715898        0.0723803076
 C          0.1090605008       -0.1371386520        1.3461678437
 C          0.9604285367        0.8837626860        1.7215704014
 C          1.9053667467        1.3711129446        0.8350126610
 C          1.9920243175        0.8149794272       -0.4335436793
 C          1.1423514626       -0.2207253845       -0.8048527579
 H          1.2206125816       -0.6358480457       -1.7970509862
 N          2.9522053744        1.2989681308       -1.3353396506
 S          4.4990994880        1.5917681279       -0.7753804938
 O          4.5442646982        2.8633538228       -0.0974286092
 O          5.3511591120        1.4653842273       -1.9367729726
 C          4.8263557315        0.2765823780        0.3857847262
 C          5.0799478577        0.5720989520        1.7094091007
 C          5.3019180365       -0.4678429640        2.5981577297
 C          5.2628085677       -1.7788438849        2.1502493082
 C          5.0096424327       -2.0596947405        0.8160924953
 C          4.7885449643       -1.0241280519       -0.0767771666
 H          4.5961986369       -1.2092582600       -1.1212323399
 H          4.9812762637       -3.0805001692        0.4701570987
 H          5.4312045159       -2.5875238681        2.8438275001
 H          5.5008784326       -0.2523508194        3.6356183777
 H          5.0995834299        1.6052298755        2.0161048681
 H          2.9551851542        0.8338603156       -2.2305563550
 H          2.5637068355        2.1814737572        1.1026879430
 H          0.8864926802        1.3096773028        2.7107407745
 H         -0.6347256328       -0.5132207888        2.0358812557
 H         -0.7077897108       -2.5842641587        0.4675667170
 C         -0.5671005831       -2.3960480450       -1.6569858162
 C          0.5035667517       -3.4266063329       -1.8505451103
 C         -0.9397361840       -3.8287101530       -1.8854773185
 H         -1.3781229495       -4.1018987801       -2.8336756454
 H         -1.3415662434       -4.3772635019       -1.0460154575
 H          1.0570108439       -3.4304637527       -2.7775848456
 H          1.0852498521       -3.7085453440       -0.9861964420
 H         -0.7613758896       -1.6979131692       -2.4629921465
