  62
        -98.94598526
 C          1.5608598062        1.3193029354        0.4389416014
 C          1.4555672144        0.1833955103       -0.4005786372
 C          2.2326756184       -0.9921735340        0.0202614329
 C          2.9286425289       -0.9471221327        1.1707827590
 C          3.8004814125       -2.0533128043        1.6893961907
 C          5.2480453988       -1.8935808376        1.2037395500
 C          5.3717165700       -1.6471203125       -0.2999290997
 H          4.9311794954       -0.6764760606       -0.5390036523
 H          6.4370947013       -1.5815639589       -0.5314295846
 C          4.7229064675       -2.7277655064       -1.1761526571
 H          4.5679012982       -3.6347749309       -0.5907728817
 H          5.4102304557       -2.9793355992       -1.9865980752
 C          3.4019237835       -2.3098705411       -1.8249621203
 H          3.5318904144       -1.3515663029       -2.3337072147
 H          3.1486001051       -3.0526836314       -2.5857475205
 C          2.1999247839       -2.1952789092       -0.8787814243
 H          1.3019128855       -2.0784452801       -1.4914378403
 H          2.1058874812       -3.1120084132       -0.2936550341
 H          5.8039597328       -2.7932100948        1.4742940186
 H          5.6976622382       -1.0468031415        1.7276908566
 H          3.7874388507       -2.0200416741        2.7802605371
 H          3.4000390401       -3.0101581565        1.3603359826
 O          2.9513473041        0.1418676821        1.9827984524
 C          2.2869029665        1.3057118905        1.6286292230
 O          2.4050966721        2.2378520412        2.4509748568
 H         -0.7381990025        1.1143680788        1.5891040492
 C         -1.2922267288        1.5455947932        0.7637298954
 C         -0.6250321881        2.3537510393       -0.1484551023
 C         -1.3507062949        2.9045349021       -1.1966129558
 C         -2.7033559334        2.6411060884       -1.3289587878
 C         -3.3608555919        1.8281777324       -0.4246817970
 C         -2.6444533095        1.2734938973        0.6285311376
 N         -3.2992473842        0.4420507584        1.5585486612
 S         -4.1683376746       -0.8632913650        0.9697441607
 O         -5.3656314877       -0.3814710738        0.3284097444
 O         -4.3620247645       -1.7292649289        2.1110097487
 C         -3.1059643481       -1.6487616810       -0.2259201322
 C         -3.2022783916       -1.3058768138       -1.5590427494
 C         -2.3372119668       -1.8972521316       -2.4651909494
 C         -1.4004003022       -2.8186924829       -2.0263710990
 C         -1.3173538872       -3.1535073830       -0.6837047388
 C         -2.1719481263       -2.5581206575        0.2284917485
 H         -2.1421483764       -2.7952884980        1.2803081167
 H         -0.5871118944       -3.8708826630       -0.3449842311
 H         -0.7307302060       -3.2798083995       -2.7353982081
 H         -2.3941395160       -1.6348614445       -3.5091580150
 H         -3.9514247140       -0.5946781512       -1.8647472509
 H         -2.6989384722        0.1377221969        2.3114643731
 H         -4.4127009825        1.6106262914       -0.5157208487
 H         -3.2538790655        3.0756605925       -2.1494103491
 H         -0.8567960865        3.5382651969       -1.9145583965
 C          0.8494416289        2.6036028802        0.0554078136
 H          0.9647512001        3.2854419709        0.9111476694
 C          1.5259472084        3.2201190728       -1.1526205487
 C          1.5521369708        4.7073847558       -1.3327232937
 C          2.8043047239        3.9760102826       -0.9552144312
 H          3.5859021956        3.8722520853       -1.6929105628
 H          3.1705732060        4.0723972626        0.0569152256
 H          1.0733122820        5.3121376366       -0.5774471265
 H          1.4777077275        5.1082938731       -2.3323993212
 H          1.4445614107        2.5968861194       -2.0359235132
 O          0.7535980022        0.1520234074       -1.4429501697
