  62
        -98.94054209
 C          2.3731454074        0.7573717786       -0.1081141194
 C          3.5429225912        1.0518221950        0.6322371284
 C          4.8030781242        0.5769765716        0.0507866266
 C          4.7905061158       -0.0730202187       -1.1274227708
 C          5.9950274018       -0.6007651762       -1.8588608196
 C          6.4585872678       -1.9835820680       -1.3802309236
 C          7.1410589042       -2.0037785284       -0.0118780387
 H          7.6046691539       -2.9858794909        0.1001956966
 H          7.9405115889       -1.2624982204        0.0051331046
 C          6.1930468472       -1.7683277801        1.1723205197
 H          5.1611964227       -1.9255597410        0.8493539033
 H          6.3983078681       -2.5020685594        1.9551072513
 C          6.3064923704       -0.3831541940        1.8091396072
 H          5.5674598555       -0.3126305176        2.6114242363
 H          7.2972159364       -0.2635981105        2.2530803124
 C          6.0626691647        0.7795049353        0.8379939301
 H          6.9150992824        0.8969232282        0.1694827356
 H          5.9454139865        1.6956613972        1.4219128988
 H          5.5968998010       -2.6549859140       -1.3680068162
 H          7.1659793516       -2.3639779434       -2.1206693252
 H          6.8170070900        0.1103513461       -1.7728150317
 H          5.7097300534       -0.6780958338       -2.9101498587
 O          3.6451703062       -0.3170553478       -1.8191002104
 C          2.4093536216        0.0707008454       -1.3214877255
 O          1.4443252237       -0.2449801158       -2.0432687861
 O          3.5330773829        1.6771066297        1.7266791061
 C          1.0289952731        1.2003463259        0.4375141328
 C          0.1168095550        0.0138751152        0.6287559388
 C          0.6004828495       -1.1093659942        1.2961546921
 C         -0.2055596512       -2.2114841236        1.5018040121
 C         -1.5186771825       -2.2121220118        1.0643081284
 C         -2.0129232860       -1.0958328364        0.4016414706
 C         -1.1956909900        0.0059658745        0.1860454330
 H         -1.6074941838        0.8555516849       -0.3320271233
 N         -3.3351170459       -1.0687563025       -0.0702935714
 S         -4.1728115883        0.3965303877       -0.0228084466
 O         -3.8585081254        1.1585965429       -1.2048733225
 O         -3.9446858767        1.0559827042        1.2431050742
 C         -5.8540001723       -0.1921731957       -0.1173890485
 C         -6.3731170995       -0.5241967469       -1.3546915263
 C         -7.6687908956       -1.0102106557       -1.4286099826
 C         -8.4194891496       -1.1557596986       -0.2712866060
 C         -7.8857728608       -0.8166240877        0.9629013895
 C         -6.5900462646       -0.3311716049        1.0442167974
 H         -6.1364610294       -0.0464428025        1.9799559406
 H         -8.4730312602       -0.9276568849        1.8601625694
 H         -9.4280078238       -1.5331807100       -0.3322508892
 H         -8.0881989552       -1.2721832543       -2.3865802643
 H         -5.7553332579       -0.3857591029       -2.2267875910
 H         -3.8955868734       -1.8321997279        0.2830871446
 H         -2.1509097668       -3.0715018631        1.2284482095
 H          0.1876090415       -3.0759682043        2.0156790156
 H          1.6230998665       -1.1051278135        1.6492465430
 H          1.2413371067        1.6278736708        1.4297232223
 C          0.4340340921        2.2836303548       -0.4369235035
 C         -0.5172103183        3.2853860098        0.1439915653
 C          0.8688706844        3.7039277522       -0.2419248406
 H          0.9962117279        4.3285124281       -1.1132659973
 H          1.5816187411        3.8997275562        0.5458432159
 H         -1.3488952426        3.6149049021       -0.4613814102
 H         -0.7530663321        3.1996731944        1.1943548903
 H          0.2596804341        1.9481811986       -1.4539704407
