  62
        -98.93986099
 C         -1.8456731732       -0.9921089745        0.4880713122
 C         -2.4196802485        0.1106385848        1.1722432106
 C         -3.8764736139        0.2506213857        1.0787646598
 C         -4.5888712131       -0.6615595890        0.3934345946
 C         -6.0845353072       -0.6795024089        0.2300533165
 C         -6.5996380291        0.2128184805       -0.9073585612
 C         -6.5323791221        1.7161178855       -0.6355423483
 H         -7.1199633058        2.2089950191       -1.4126309627
 H         -7.0099784198        1.9333501861        0.3203846819
 C         -5.1121343472        2.2989368730       -0.6475865768
 H         -4.4335513509        1.5983502114       -1.1398685265
 H         -5.1008697170        3.2199620170       -1.2348444951
 C         -4.5531355080        2.6377183529        0.7345458436
 H         -5.1462161711        3.4372812552        1.1843286110
 H         -3.5311780865        3.0059277891        0.6101904018
 C         -4.5133940134        1.4524391118        1.7080660578
 H         -3.9056800590        1.7374035178        2.5705708558
 H         -5.5197989412        1.2142438288        2.0522745553
 H         -6.0374220936       -0.0185211125       -1.8148919593
 H         -7.6434904100       -0.0560218484       -1.0849393624
 H         -6.3603391145       -1.7127470541        0.0086408241
 H         -6.5584201004       -0.3862147997        1.1672511923
 O         -4.0074689704       -1.7170054772       -0.2309753217
 C         -2.6275565374       -1.8984455198       -0.2303125495
 O         -2.2591096007       -2.8878024934       -0.8878045624
 O         -1.7417447245        0.9353729845        1.8432547274
 C         -0.3357208510       -1.1313749286        0.5730431808
 C          0.3313486846       -0.4060358427       -0.5676906778
 C         -0.0427643145       -0.6478965540       -1.8868060212
 C          0.5669481425        0.0334102839       -2.9234778116
 C          1.5629818541        0.9598267032       -2.6682295461
 C          1.9404147326        1.2128997743       -1.3545302191
 C          1.3266151537        0.5266946127       -0.3137573375
 H          1.6085746078        0.7548122132        0.7032456585
 N          2.9335478217        2.1578800272       -1.0744924677
 S          3.9290305833        2.0246390362        0.2527914236
 O          3.2267263817        2.3919299643        1.4564763481
 O          5.0750300256        2.8431193089       -0.0819934310
 C          4.4277400822        0.3128048860        0.3404857997
 C          4.7942153660       -0.3474715343       -0.8158582422
 C          5.2178915515       -1.6639718810       -0.7306425737
 C          5.2795102401       -2.2931288503        0.5031274769
 C          4.9147105887       -1.6154562373        1.6559087962
 C          4.4810506864       -0.3012153698        1.5754743641
 H          4.1741263331        0.2577382983        2.4452640641
 H          4.9591392880       -2.1054023779        2.6152485402
 H          5.6095460171       -3.3176316404        0.5667949246
 H          5.4978713802       -2.1947793304       -1.6260943565
 H          4.7460840428        0.1646527993       -1.7627308606
 H          3.3995912813        2.5568670037       -1.8749729056
 H          2.0358725648        1.4942823334       -3.4778897455
 H          0.2666103393       -0.1611158595       -3.9419913998
 H         -0.8154938700       -1.3748018373       -2.0861941838
 H         -0.0591971876       -0.6029832760        1.4998234588
 C          0.1312935729       -2.5735399434        0.7150971941
 C          0.9162386732       -3.2987686836       -0.3328111840
 C          1.5871547524       -2.8618277393        0.9321290527
 H          1.8647261861       -3.6086583526        1.6598951713
 H          2.2680806097       -2.0258660484        0.8731746922
 H          0.7023469884       -4.3466926383       -0.4756237376
 H          1.1576610713       -2.7764039942       -1.2444863522
 H         -0.5740807023       -3.1712007142        1.2831419922
