  62
        -98.94328020
 C          1.3070935266        1.2968993053       -0.8250565485
 C          0.7891090777        2.1356639236        0.1904557119
 C         -0.5828479497        2.6234820927       -0.0122265319
 C         -1.2643935728        2.2354090251       -1.1044215342
 C         -2.7111800315        2.5337683371       -1.3790145807
 C         -3.6013576352        1.6001844322       -0.5321133064
 C         -4.4530323453        2.3193463248        0.5133491654
 H         -5.2823818742        2.8260747148        0.0144243556
 H         -4.8756603035        1.5524390665        1.1664713107
 C         -3.7142600802        3.3517299374        1.3707159973
 H         -3.6233107610        4.2888549456        0.8185822140
 H         -4.3472001967        3.5596001350        2.2361508255
 C         -2.3220197589        2.9380810340        1.8668123087
 H         -2.2053835031        3.2961869142        2.8922096592
 H         -2.2248350875        1.8514299972        1.8976710400
 C         -1.1550053483        3.5222573259        1.0473094184
 H         -0.3203403947        3.7244370879        1.7251241884
 H         -1.4579384962        4.4736099700        0.6003108179
 H         -4.2680327526        1.0349412839       -1.1865581240
 H         -2.9612859482        0.8733784057       -0.0256404788
 H         -2.8863928698        2.3661631037       -2.4422331723
 H         -2.9233144836        3.5758166353       -1.1500742213
 O         -0.7304453895        1.4343732839       -2.0632650242
 C          0.5541494493        0.9271905820       -1.9371997665
 O          0.9018359161        0.1701041318       -2.8662332709
 O          1.4383354642        2.4600169110        1.2199202267
 C          2.6656045929        0.6396666620       -0.6443652352
 C          2.5933474847       -0.2237438971        0.5931783523
 C          3.5354696945       -0.2121290752        1.6119809135
 C          3.3415436271       -0.9813916053        2.7474221307
 C          2.2052215462       -1.7544050206        2.8989980000
 C          1.2650405423       -1.7865303779        1.8742680351
 C          1.4856335520       -1.0529102351        0.7223056034
 H          0.7565865936       -1.0836551618       -0.0743945045
 N          0.0993085681       -2.5590273317        1.9750523146
 S         -1.3087151795       -2.0578496149        1.2218854994
 O         -1.4516300910       -0.6208498358        1.2162159983
 O         -2.3541109998       -2.7884722596        1.9099200532
 C         -1.1674701495       -2.6932353588       -0.4339518283
 C         -1.5483650107       -1.9095662730       -1.5037614029
 C         -1.4522953846       -2.4275614116       -2.7852889910
 C         -0.9843358091       -3.7183472915       -2.9724237251
 C         -0.6141614803       -4.4977824330       -1.8865032745
 C         -0.7063621182       -3.9840610646       -0.6034897105
 H         -0.4252048833       -4.5573346030        0.2640327580
 H         -0.2504733942       -5.5014450311       -2.0374494144
 H         -0.9058871355       -4.1161879999       -3.9718887393
 H         -1.7287713960       -1.8128664752       -3.6266975735
 H         -1.8925651986       -0.9031212037       -1.3239480777
 H         -0.0728587922       -2.9687719775        2.8811758487
 H          2.0400116085       -2.3231107521        3.8013542114
 H          4.0763522717       -0.9590708776        3.5379682811
 H          4.4102794874        0.4114406407        1.5275205062
 H          2.8073271039       -0.0146547381       -1.5169061842
 C          3.7768197055        1.6656921175       -0.6124599302
 C          5.1616293916        1.2873089437       -1.0425005687
 C          4.3250519260        2.1786429192       -1.9089600439
 H          4.5850936974        3.2239888138       -1.9806128074
 H          3.9106015165        1.7687688138       -2.8186178374
 H          6.0006561982        1.7230752222       -0.5213997067
 H          5.3233711256        0.2714328016       -1.3696668461
 H          3.6654621426        2.3745946639        0.1995320886
