  62
        -98.93750231
 C          1.8194418038        1.1547399242        0.2691828271
 C          2.3882462020        0.1322990157        1.0684370922
 C          3.7961251800       -0.2164148879        0.8102267108
 C          4.4670595800        0.4318971236       -0.1599831964
 C          5.9056121862        0.3280412724       -0.6223154501
 C          6.7847472305       -0.8401908586       -0.1846174526
 C          6.3750696849       -2.1965882562       -0.7576632398
 H          6.5832000338       -2.1971546707       -1.8305634201
 H          6.9992906773       -2.9655846588       -0.2975121566
 C          4.9069532236       -2.5737244635       -0.5749775959
 H          4.7521758437       -3.5516368237       -1.0391074511
 H          4.2745628079       -1.8618877194       -1.1097311384
 C          4.4307128918       -2.6684095476        0.8732412967
 H          5.0738469953       -3.3544495519        1.4281530883
 H          3.4223501326       -3.0920117615        0.8614197731
 C          4.3622989980       -1.3348176632        1.6370174642
 H          3.6809263691       -1.4662530694        2.4828661563
 H          5.3340056479       -1.0605918678        2.0410503481
 H          6.8402676546       -0.8846157609        0.8990497721
 H          7.7940079581       -0.6221888665       -0.5443222390
 H          6.3854089990        1.2602076538       -0.3042649212
 H          5.8696010792        0.3588941970       -1.7159133652
 O          3.8784895688        1.4126196785       -0.9023141668
 C          2.5586262562        1.7965018824       -0.7231154298
 O          2.1961081921        2.7035951943       -1.4949534740
 O          1.7491135550       -0.4595400603        1.9802931532
 C          0.3649385487        1.5166614977        0.5235539352
 C         -0.5049551696        0.9329774507       -0.5638990479
 C         -0.6751217538        1.5588590950       -1.7946953937
 C         -1.4524852833        0.9717562973       -2.7760396685
 C         -2.0924335156       -0.2333004841       -2.5454911527
 C         -1.9296169759       -0.8670784038       -1.3198732915
 C         -1.1357097955       -0.2844189935       -0.3418913899
 H         -1.0016065909       -0.7986561246        0.5986564682
 N         -2.5731738625       -2.0901481008       -1.0513439394
 S         -3.4980890997       -2.2013763714        0.3405716911
 O         -2.6502133366       -2.2697580085        1.5020604103
 O         -4.3664221158       -3.3357834939        0.1134150969
 C         -4.4493669332       -0.6927748729        0.3459922915
 C         -4.0128544365        0.3901715241        1.0816662551
 C         -4.7212546656        1.5791566337        1.0056030696
 C         -5.8448031320        1.6646246926        0.1982742212
 C         -6.2736112453        0.5659844993       -0.5309607309
 C         -5.5678480064       -0.6238767750       -0.4617707139
 H         -5.8722431304       -1.5043197494       -1.0042663432
 H         -7.1509876933        0.6344135275       -1.1536481559
 H         -6.3899198603        2.5933951822        0.1404749389
 H         -4.3917701320        2.4349495937        1.5731960681
 H         -3.1366150253        0.2811369068        1.7003632676
 H         -3.0893027048       -2.4582463997       -1.8381467967
 H         -2.7047422216       -0.6867475325       -3.3103269006
 H         -1.5682289536        1.4630732015       -3.7301007720
 H         -0.1663441831        2.4887058812       -1.9894259879
 H          0.1079362875        1.0074137282        1.4626403235
 C          0.1501510036        3.0049492838        0.7081881672
 C         -1.1048211519        3.4759341669        1.3773373349
 C          0.2098327961        3.5846364474        2.0882606624
 H          0.6504323658        4.5619226226        2.2167167998
 H          0.4064672179        2.9076835100        2.9072222953
 H         -1.5730489378        4.3794439040        1.0191355530
 H         -1.7975240792        2.7197398458        1.7142369530
 H          0.5539282418        3.6058648810       -0.0957447360
