  62
        -98.94158209
 C         -1.5356372596       -1.1921520904        0.1540121396
 C         -1.6279948404        0.1214274598        0.6812645590
 C         -2.6961485308        0.9716701489        0.1418232983
 C         -3.5063541503        0.4769035881       -0.8116455416
 C         -4.6685178005        1.2088201072       -1.4163530622
 C         -5.9642666506        0.9275350969       -0.6428510224
 C         -5.8302797610        1.1024783676        0.8699188775
 H         -5.1508714707        0.3404078181        1.2588377580
 H         -6.8119845010        0.9101687373        1.3082208274
 C         -5.3379731519        2.4892266781        1.3071993970
 H         -5.9526251522        2.8315174781        2.1424320067
 H         -5.4711211820        3.2034438976        0.4938613567
 C         -3.8838487820        2.5258973490        1.7813721274
 H         -3.7235289917        1.7482003495        2.5325733478
 H         -3.7090763426        3.4894141294        2.2677486470
 C         -2.8190247016        2.3665442791        0.6885971577
 H         -1.8495587519        2.6011483798        1.1387842878
 H         -3.0099418218        3.0812622887       -0.1149167827
 H         -6.2707495800       -0.1018657634       -0.8423971420
 H         -6.7430935708        1.5927808363       -1.0199131429
 H         -4.7903946701        0.8696574967       -2.4463034321
 H         -4.4588720511        2.2766388473       -1.4171461627
 O         -3.3826789795       -0.7801486721       -1.3021835510
 C         -2.4012340191       -1.6500743613       -0.8409546804
 O         -2.4250720984       -2.7643712316       -1.3928351199
 O         -0.8499344809        0.5616105606        1.5707841390
 C         -0.4275234593       -2.0700448996        0.7111778502
 C          0.8029992108       -1.9232326793       -0.1471038295
 C          0.7896020714       -2.2821997699       -1.4927920494
 C          1.9203616714       -2.1188666497       -2.2704773792
 C          3.0740491010       -1.5731382288       -1.7328069792
 C          3.0924986805       -1.1979863182       -0.3956485793
 C          1.9634146604       -1.3878693385        0.3909727505
 H          1.9947810100       -1.0899505380        1.4281519304
 N          4.2432030201       -0.6276070473        0.1786103407
 S          4.0788739091        0.8166539329        1.0165147700
 O          5.4268067588        1.3346774837        1.1082484101
 O          3.4035018089        0.5851036931        2.2659340700
 C          3.1104091288        1.8422114619       -0.0745899407
 C          1.7344443888        1.8675319712        0.0258261490
 C          1.0139184786        2.6046598405       -0.9019164615
 C          1.6724436785        3.3008157304       -1.9026589317
 C          3.0567710185        3.2707941711       -1.9842964313
 C          3.7829421987        2.5295175019       -1.0676237308
 H          4.8598689387        2.4832840924       -1.0905681605
 H          3.5681354484        3.8177310410       -2.7599434314
 H          1.1027520083        3.8708627097       -2.6195738720
 H         -0.0627872414        2.6195137999       -0.8319053018
 H          1.2329497989        1.3268998413        0.8136170291
 H          5.0281981402       -0.5699053172       -0.4551485691
 H          3.9534670111       -1.4377384686       -2.3439371790
 H          1.9012043919       -2.4094487701       -3.3099268491
 H         -0.1170998483       -2.6886241306       -1.9148666194
 H         -0.1932250898       -1.6324528390        1.6946618001
 C         -0.8525560886       -3.5142170297        0.9416965208
 C         -0.1564087978       -4.6916340396        0.3322526715
 C          0.0021467917       -4.4066077089        1.7931590314
 H         -0.4767971181       -5.0579429788        2.5086011216
 H          0.9506793814       -4.0095525682        2.1245365614
 H         -0.7666639573       -5.5290015401        0.0296832717
 H          0.6889529023       -4.5131816595       -0.3131667484
 H         -1.9254168486       -3.6116335202        1.0681133706
