  62
        -98.93508539
 C         -1.6925632099       -0.3936547011       -0.2757420096
 C         -2.8288769499       -1.1940490509        0.0051707507
 C         -4.1423762899       -0.6323247112       -0.3499271797
 C         -4.2066422799        0.5989984585       -0.8836582804
 C         -5.4205166599        1.3565769482       -1.3611741809
 C         -6.6844229200        1.2928401886       -0.4934506009
 C         -6.4288087501        1.2069238095        1.0183294791
 H         -5.3775102901        1.4082369896        1.2316223091
 H         -7.0161592702        1.9771575997        1.5216880587
 C         -6.8209183401       -0.1473405602        1.6140885599
 H         -7.7778096600       -0.4541892405        1.1861948000
 H         -6.9676566802       -0.0281458296        2.6902811498
 C         -5.8024386400       -1.2694326603        1.4177021306
 H         -4.9160002101       -1.0760650199        2.0276151505
 H         -6.2479376500       -2.1965345301        1.7861752911
 C         -5.3322300799       -1.4908478111       -0.0292034593
 H         -4.9901528999       -2.5257227811       -0.1159210987
 H         -6.1435172499       -1.3335369215       -0.7358051694
 H         -7.2948449499        0.4444314484       -0.7995856605
 H         -7.2630293000        2.1913725985       -0.7147450215
 H         -5.0893051400        2.3942192281       -1.4498079214
 H         -5.6614459899        1.0094927176       -2.3704008907
 O         -3.0923466300        1.3528459584       -1.0988090907
 C         -1.8154237300        0.8927462286       -0.8006412604
 O         -0.9180104800        1.7198737285       -1.0452594608
 H          1.9269451701        0.3942706188       -0.7541318598
 C          1.6346090400        0.6229160694        0.2562608700
 C          0.5029830200        0.0460847996        0.8093114003
 C          0.1212982499        0.4227230404        2.0947256000
 C          0.8499108398        1.3582057008        2.8025898895
 C          1.9883530298        1.9218115805        2.2530003393
 C          2.3760069999        1.5549827298        0.9702728395
 N          3.5216658799        2.1091617495        0.3865147593
 S          4.4529390800        1.2267934490       -0.6758150601
 O          5.7639987200        1.8358341791       -0.5894064504
 O          3.8613774801        1.2047578582       -1.9896052502
 C          4.5107672800       -0.4274367806       -0.0067257292
 C          4.1550803301       -1.4959162911       -0.8038599186
 C          4.2043053302       -2.7759061708       -0.2747493779
 C          4.6051349101       -2.9639131701        1.0386889022
 C          4.9655611700       -1.8809098096        1.8258350617
 C          4.9208915200       -0.5998003499        1.3005575709
 H          5.2030848299        0.2602049504        1.8853759605
 H          5.2798789999       -2.0312763190        2.8459511518
 H          4.6377707101       -3.9605280998        1.4496674128
 H          3.9264385602       -3.6191539212       -0.8871279374
 H          3.8433406502       -1.3033470417       -1.8181702287
 H          4.0708409198        2.7093433599        0.9824693690
 H          2.5614596597        2.6517210109        2.8040676289
 H          0.5358783997        1.6473373113        3.7942030794
 H         -0.7661357502       -0.0203360594        2.5259821402
 C         -0.3309588299       -0.9685598508        0.0712246608
 H         -0.5554959400       -1.7935840004        0.7678781912
 C          0.4048987802       -1.5878716014       -1.1071800988
 C         -0.3398719397       -2.2505835621       -2.2258037485
 C          0.4017998702       -0.9726190922       -2.4729685892
 H          1.3128143603       -1.0026314325       -3.0536837091
 H         -0.1633850298       -0.0642138523       -2.6134675897
 H          0.0577137203       -3.1658339123       -2.6374694480
 H         -1.4192436797       -2.2153736521       -2.1988562386
 H          1.3285662502       -2.0652962512       -0.7933690885
 O         -2.7494238999       -2.3374592806        0.5267981714
