  62
        -98.94626473
 C          1.5901342843        1.4470050935       -0.0448272574
 C          2.5268572493        0.9153659393        0.8716955781
 C          3.2224495580       -0.3052523982        0.4432178186
 C          2.9316826460       -0.8413817959       -0.7566940465
 C          3.5653150911       -2.0839339857       -1.3116800746
 C          2.7623408554       -3.3411937739       -0.9529635542
 C          2.3741425501       -3.4257076062        0.5226386125
 H          1.6840028749       -2.6115487908        0.7566917340
 H          1.8272337114       -4.3601875098        0.6645036804
 C          3.5632051483       -3.3825543693        1.4929107008
 H          4.4841395504       -3.6234045099        0.9605606137
 H          3.4205145737       -4.1503351529        2.2563897211
 C          3.7398210871       -2.0529542924        2.2286243176
 H          2.7926630848       -1.7595070112        2.6889927995
 H          4.4603206361       -2.2056579436        3.0367425421
 C          4.2478712481       -0.8810414688        1.3789660181
 H          4.5204911706       -0.0699822798        2.0608232992
 H          5.1437541612       -1.1843091142        0.8332472538
 H          3.3526894024       -4.2176506911       -1.2260169280
 H          1.8474885785       -3.3440722329       -1.5466347652
 H          3.6079198868       -1.9889024160       -2.3979106946
 H          4.5800077145       -2.1657787123       -0.9262303462
 O          1.9998588249       -0.3216667398       -1.5950997026
 C          1.3050032810        0.8335547321       -1.2654179288
 O          0.4841438346        1.2038293429       -2.1227746268
 H         -0.4234347981        0.7303091474        1.4944443987
 C         -1.1210261590        1.3894898968        0.9918206507
 C         -0.6305225932        2.5002890053        0.3147910830
 C         -1.5367462836        3.3395648618       -0.3188169939
 C         -2.8934142769        3.0630167245       -0.2841517162
 C         -3.3762021829        1.9543280048        0.3855912787
 C         -2.4778740870        1.1101488874        1.0275391208
 N         -2.9590894773       -0.0240966350        1.7161610529
 S         -3.7549363901       -1.1957214631        0.8227518125
 O         -4.9393551091       -0.6156429091        0.2441302893
 O         -3.9605967929       -2.2969945924        1.7355388949
 C         -2.6165556605       -1.6793144688       -0.4617676883
 C         -2.4339958303       -0.8475097738       -1.5487144356
 C         -1.5154789866       -1.2088470412       -2.5210983884
 C         -0.8066356708       -2.3931121941       -2.3941486234
 C         -1.0056018289       -3.2208211750       -1.2995094084
 C         -1.9117785329       -2.8576062388       -0.3169801041
 H         -2.0957846874       -3.4694347094        0.5516835974
 H         -0.4585295697       -4.1456716824       -1.2057779199
 H         -0.0939819373       -2.6669219119       -3.1567249079
 H         -1.3430197611       -0.5549169585       -3.3600790628
 H         -3.0043399001        0.0638073536       -1.6234360788
 H         -2.2534147799       -0.4701014276        2.2855516471
 H         -4.4273304828        1.7167947519        0.4065912364
 H         -3.5854028095        3.7217338121       -0.7867200909
 H         -1.1824166414        4.2090015236       -0.8473102191
 C          0.8600157687        2.7295286556        0.3099162616
 H          1.1719311337        2.9696087062        1.3375773232
 C          1.2997976816        3.8535055487       -0.6048372632
 C          1.2771617543        5.2726575677       -0.1233911414
 C          2.5847615890        4.5648710614       -0.3085723155
 H          3.2175492161        4.8533594981       -1.1344449266
 H          3.1307688362        4.2562366609        0.5710820407
 H          1.0142798971        6.0514758515       -0.8232778890
 H          0.9377612165        5.4534451153        0.8853350132
 H          1.0647090393        3.6597068593       -1.6453636049
 O          2.7725926185        1.4393916922        1.9928385417
