  62
        -98.94393637
 C          1.8232393245        1.1401748009        0.2504343411
 C          2.1392451587        0.1298690050       -0.6892787181
 C          3.5640090887       -0.0021680235       -1.0293872225
 C          4.4579108032        0.8307058724       -0.4655771640
 C          5.9419921823        0.7698028647       -0.6807257516
 C          6.6182966803       -0.1248604726        0.3675858504
 C          5.9493567093       -1.4886209897        0.5398648466
 H          6.5278987463       -2.0435861161        1.2815574563
 H          4.9484426823       -1.3462728749        0.9538350161
 C          5.8480944477       -2.3134961890       -0.7507345781
 H          6.5458032399       -1.9261690788       -1.4940991357
 H          6.1438305423       -3.3420247056       -0.5334016961
 C          4.4446522871       -2.3730954533       -1.3571301761
 H          3.7244258111       -2.6716061525       -0.5906992659
 H          4.4396009866       -3.1482364591       -2.1282820813
 C          3.9431285486       -1.0777099448       -2.0079362519
 H          4.6863819624       -0.7104408855       -2.7186957508
 H          3.0283276249       -1.3164110482       -2.5588443131
 H          7.6623157248       -0.2635790170        0.0811638966
 H          6.5952548240        0.3914815576        1.3299775950
 H          6.1434534382        0.3918201426       -1.6810599934
 H          6.3435421731        1.7809347046       -0.5959083458
 O          4.1116796604        1.8039262035        0.4152258800
 C          2.7932392639        1.9749996856        0.8048526948
 O          2.6158814083        2.8861099210        1.6383798443
 O          1.2799529352       -0.6247680178       -1.2158946087
 C          0.3827710707        1.3493379030        0.6812471904
 C         -0.1979961185        0.0616434648        1.2118553043
 C          0.5324290794       -0.6707411069        2.1446035862
 C          0.0389156544       -1.8539241782        2.6573463596
 C         -1.1962304212       -2.3306838594        2.2546743149
 C         -1.9418127798       -1.6002769661        1.3375872980
 C         -1.4455606341       -0.4066217914        0.8297141900
 H         -2.0349005600        0.1383501546        0.1117955864
 N         -3.2188730922       -2.0338833401        0.9605473245
 S         -3.8567288449       -1.7292527861       -0.5528731472
 O         -4.9715742431       -2.6490154422       -0.6521642576
 O         -2.8693281784       -1.8222653038       -1.6013554110
 C         -4.4976109120       -0.0711078287       -0.4479579418
 C         -4.4219886893        0.7425979605       -1.5608248315
 C         -4.9678490008        2.0156332207       -1.5008382461
 C         -5.5764123354        2.4508401454       -0.3336571794
 C         -5.6437624255        1.6211651780        0.7752299595
 C         -5.1050259447        0.3456518627        0.7200176541
 H         -5.1410089959       -0.3247174251        1.5621963278
 H         -6.1156637624        1.9641405709        1.6817932693
 H         -5.9975944663        3.4427159426       -0.2888343613
 H         -4.9156754942        2.6612415768       -2.3634316680
 H         -3.9274510522        0.3682443589       -2.4434360441
 H         -3.4862853852       -2.9428930805        1.3077552719
 H         -1.5798663314       -3.2601839871        2.6469587548
 H          0.6217267623       -2.4148325212        3.3726872247
 H          1.5007621577       -0.3009598945        2.4547445462
 H          0.4175051001        2.0739134297        1.5084648844
 C         -0.4203315172        1.9507177509       -0.4534939400
 C         -1.5732890662        2.8608703511       -0.1569075657
 C         -0.3021155321        3.4203324976       -0.7194986931
 H         -0.2940606637        3.7592963371       -1.7444928771
 H          0.3440572439        3.9889369065       -0.0664526765
 H         -2.4429366468        2.8170440544       -0.7948652332
 H         -1.7974701051        3.0585462603        0.8802716516
 H         -0.4926212855        1.2890543870       -1.3101101060
