  62
        -98.94632278
 C         -1.3800061305       -1.4359718699       -0.3054766703
 C         -2.6072592705       -1.4113023100        0.4064661696
 C         -3.6548840106       -0.5266038503       -0.1161076806
 C         -3.4078185507        0.1957555095       -1.2237682308
 C         -4.3589099108        1.1820173592       -1.8362086511
 C         -4.1336052411        2.5920500294       -1.2733213415
 C         -4.0795872111        2.6475962298        0.2536009285
 H         -3.1852046611        2.1210714600        0.5964775587
 H         -3.9567846313        3.6959184099        0.5351732083
 C         -5.3154034211        2.0683590298        0.9568174386
 H         -5.6130129512        2.7499064199        1.7564250284
 H         -6.1473980410        2.0100940295        0.2540875286
 C         -5.0956754509        0.6970660900        1.5984678790
 H         -5.9477510908        0.4862946400        2.2502397690
 H         -4.2018548109        0.7271459403        2.2270160790
 C         -4.9609953106       -0.4810156603        0.6256900193
 H         -5.0030072705       -1.4028812701        1.2132384396
 H         -5.8003077006       -0.4790761806       -0.0728380707
 H         -4.9336894112        3.2406969391       -1.6353320317
 H         -3.1846068811        2.9727754594       -1.6595126815
 H         -5.3811093208        0.8612463991       -1.6439156511
 H         -4.1887640308        1.2003397689       -2.9141200411
 O         -2.2318237207        0.1342901295       -1.8937020308
 C         -1.1824760305       -0.6606038202       -1.4493604105
 O         -0.1684513605       -0.5841525502       -2.1693829105
 O         -2.8173962304       -2.1113018797        1.4345450498
 C         -0.2941276103       -2.3283514096        0.2637068399
 C          0.6136745195       -1.5926266092        1.2248752098
 C          1.1898571996       -2.2670529889        2.2967959600
 C          2.0366486395       -1.6095574585        3.1694692298
 C          2.3337758392       -0.2706773185        2.9870762795
 C          1.7605810592        0.4147498411        1.9223991593
 C          0.9072494093       -0.2494721692        1.0512770594
 H          0.4597105992        0.3020880605        0.2401745393
 N          2.0222524290        1.7784104811        1.7260966689
 S          2.2193602589        2.3886562508        0.1789663388
 O          2.8868671587        3.6567640509        0.3901046185
 O          0.9502361589        2.4533939304       -0.4988068313
 C          3.3453000991        1.2491545907       -0.6036497709
 C          2.8964680193        0.3076577804       -1.5059035306
 C          3.8094243495       -0.5957112296       -2.0311056204
 C          5.1402035994       -0.5443700893       -1.6495141003
 C          5.5753619493        0.4140667710       -0.7460740906
 C          4.6706390691        1.3174933410       -0.2155019108
 H          4.9687479890        2.0865060913        0.4786388090
 H          6.6122622492        0.4570076613       -0.4542411006
 H          5.8414972496       -1.2531788093       -2.0608196401
 H          3.4659268196       -1.3359952698       -2.7364886302
 H          1.8552943093        0.2805961502       -1.7885238407
 H          2.6977080289        2.1734450614        2.3640552689
 H          2.9922603991        0.2459393018        3.6682331694
 H          2.4718452795       -2.1431493982        4.0003699900
 H          0.9578740397       -3.3094461489        2.4519124502
 H         -0.8272974902       -3.0975379696        0.8408690901
 C          0.5509872498       -3.0200997098       -0.7897413498
 C          1.1055496500       -4.3864584296       -0.5258926695
 C         -0.0025546700       -4.2061816700       -1.5186687496
 H          0.2143656401       -4.3085397403       -2.5710625395
 H         -0.9928229099       -4.5407075801       -1.2449444495
 H          2.0930479201       -4.6184738095       -0.8932581194
 H          0.8627572701       -4.8594091194        0.4131401006
 H          1.1611021497       -2.3320978098       -1.3599553200
