  62
        -98.94434705
 C         -1.2993306636       -1.6741680791       -0.8713748933
 C         -2.5163414854       -1.5196662952       -0.1573413186
 C         -3.3392162560       -0.3596862633       -0.5079557774
 C         -2.9371270566        0.4661095794       -1.4902679267
 C         -3.6417748339        1.7151180381       -1.9432491109
 C         -3.2957526156        2.9426699625       -1.0886708488
 C         -3.9398799891        2.9674464091        0.2982163959
 H         -3.8140153573        3.9787335554        0.6903906865
 H         -5.0111801613        2.7821613207        0.2072186638
 C         -3.3235963434        1.9760357959        1.2956273253
 H         -3.1608992859        2.4791812551        2.2523804884
 H         -2.3391712910        1.6644971416        0.9355023288
 C         -4.1792999620        0.7395974215        1.5761760198
 H         -3.6216330409        0.0867703270        2.2530737122
 H         -5.1009219078        1.0411895963        2.0799132103
 C         -4.5483283636       -0.0767914295        0.3307038686
 H         -4.9579455607       -1.0352627858        0.6594808597
 H         -5.3046985456        0.4468669672       -0.2534531884
 H         -2.2091374373        2.9971761004       -0.9791302506
 H         -3.6237454765        3.8292338312       -1.6370128218
 H         -4.7205711490        1.5564783884       -1.9413651747
 H         -3.3172578846        1.9050678269       -2.9686295605
 O         -1.8091757523        0.2422212086       -2.2071545270
 C         -0.9264806926       -0.7825742041       -1.8766932004
 O          0.1075901269       -0.7790260540       -2.5704516202
 O         -2.8883408746       -2.3179282979        0.7451209132
 C         -0.3746127365       -2.7657720217       -0.3560987404
 C          0.2625952207       -2.2595127050        0.9159520679
 C          0.3037417839       -3.0209053020        2.0760898258
 C          0.8213073969       -2.4840784701        3.2430183300
 C          1.2899544449       -1.1835789329        3.2776622560
 C          1.2595983610       -0.4146632374        2.1169723007
 C          0.7720654219       -0.9691396542        0.9449789679
 H          0.7314434452       -0.3690137589        0.0520650567
 N          1.7242379006        0.9009019547        2.1205688259
 S          1.5250074912        2.0039472355        0.8850305184
 O          1.8147948035        3.2741261407        1.5176347340
 O          0.2341932909        1.8960258416        0.2496277891
 C          2.8606763346        1.6014723960       -0.2222658610
 C          2.6398590093        0.9933294827       -1.4400998038
 C          3.7318948440        0.6779085825       -2.2358596882
 C          5.0150241464        0.9748932515       -1.8070595508
 C          5.2200091222        1.5931381389       -0.5819379901
 C          4.1354171452        1.9079536360        0.2180763010
 H          4.2470220970        2.3984145740        1.1709346430
 H          6.2187333253        1.8274492284       -0.2504241859
 H          5.8582425506        0.7247959638       -2.4314183266
 H          3.5606458875        0.1964906556       -3.1853792367
 H          1.6376182236        0.7577361799       -1.7643761085
 H          1.9245729767        1.3127697363        3.0172200731
 H          1.6651181169       -0.7578920200        4.1955529706
 H          0.8415677721       -3.0797208944        4.1431257520
 H         -0.0996324131       -4.0226675411        2.0698215188
 H         -1.0329477453       -3.6060033714       -0.0811289895
 C          0.6339867737       -3.2846800346       -1.3658037059
 C          2.0784698946       -2.8935610779       -1.3541881303
 C          1.6767578680       -4.2753927412       -0.9388931527
 H          1.9037154915       -5.1010143657       -1.5959606013
 H          1.7333841506       -4.5157412929        0.1120230098
 H          2.5634169694       -2.7538008507       -2.3076875304
 H          2.4160276291       -2.2064171002       -0.5934998641
 H          0.1868589437       -3.4354421822       -2.3423673269
