  62
        -98.93830518
 C         -2.1982213363       -0.9056619989       -0.0927919465
 C         -2.9126717685       -0.2278476239        0.9200466454
 C         -3.7144930425        0.9346919596        0.4994017521
 C         -3.7178839759        1.2991747394       -0.7967972140
 C         -4.3976924913        2.4521341173       -1.5059588275
 C         -5.5079576581        3.2465231150       -0.8229654547
 C         -6.7976943133        2.4638325723       -0.5785388719
 H         -7.4761185103        3.0957300469       -0.0012372449
 H         -7.2701623260        2.2630405201       -1.5433295435
 C         -6.6324116618        1.1267631323        0.1394950113
 H         -7.6241944601        0.6784066693        0.2432854381
 H         -6.0370644637        0.4500150853       -0.4767845974
 C         -6.0111381874        1.2046039006        1.5326671481
 H         -6.0994407452        0.2145329149        1.9881797282
 H         -6.5755638048        1.9070208532        2.1490116264
 C         -4.5249897742        1.6007575367        1.5739539895
 H         -4.1107087191        1.2586188095        2.5271269421
 H         -4.4019377236        2.6806357228        1.5352403348
 H         -5.7493192860        4.0785804585       -1.4900307037
 H         -5.1452008820        3.6823626687        0.1033349851
 H         -3.5950259686        3.1455863557       -1.7805037980
 H         -4.7798128405        2.0383895404       -2.4445086436
 O         -2.9862104536        0.6289991890       -1.7349809098
 C         -2.2170695699       -0.4791579420       -1.4194991129
 O         -1.6139387656       -0.9778037966       -2.3870550099
 O         -2.8733828676       -0.5694053700        2.1342886861
 C         -1.3586255668       -2.1147394935        0.2746652557
 C          0.0939470340       -1.8599123580       -0.0471094937
 C          0.9037486617       -2.7735516254       -0.7080086416
 C          2.2320798862       -2.4769407906       -0.9619223880
 C          2.7815222806       -1.2731363555       -0.5625401173
 C          1.9851988880       -0.3577264169        0.1138750867
 C          0.6568098517       -0.6593816458        0.3698000464
 H          0.0375015000        0.0548866044        0.8996014925
 N          2.5312380510        0.8729305234        0.5190961201
 S          3.9712777856        0.8592413076        1.3832319447
 O          4.1257856094       -0.3653488550        2.1335544310
 O          3.9633726866        2.0863311000        2.1494534017
 C          5.2264090890        0.9695235454        0.1254914022
 C          6.2064142753        0.0000309302        0.0413808813
 C          7.1771562871        0.1124624867       -0.9419066543
 C          7.1513804236        1.1870554833       -1.8175690657
 C          6.1618247600        2.1538705117       -1.7177470737
 C          5.1888173740        2.0475707461       -0.7369667310
 H          4.4053467949        2.7782595517       -0.6233055062
 H          6.1449950115        2.9882653725       -2.4003116533
 H          7.9070133036        1.2722659239       -2.5824618921
 H          7.9475162105       -0.6376420791       -1.0210532136
 H          6.1839098071       -0.8196783477        0.7417136653
 H          1.8613528244        1.4891818584        0.9559999823
 H          3.8131337340       -1.0367448748       -0.7654321918
 H          2.8475123278       -3.1937093979       -1.4837492743
 H          0.4946058621       -3.7169160765       -1.0297485215
 H         -1.4495639708       -2.2128100211        1.3672948646
 C         -1.9165374705       -3.3643399478       -0.3733221678
 C         -1.7342317119       -4.7003212450        0.2809112139
 C         -3.0841776942       -4.0504002042        0.2679120531
 H         -3.8523557119       -4.4642683659       -0.3678847485
 H         -3.4605659791       -3.6307034238        1.1896138533
 H         -1.5777658871       -5.5649897081       -0.3461695806
 H         -1.1951621152       -4.7295085502        1.2158624167
 H         -1.8984389005       -3.3144347550       -1.4562007178
