  62
        -98.94065045
 C         -1.5935062185       -0.5452818426        0.7816509217
 C         -2.9505114411       -0.6671633106        1.1800681747
 C         -3.9417680427       -0.7354886824        0.1013936045
 C         -3.5376190738       -0.6668281069       -1.1795093623
 C         -4.4234169438       -0.7420333601       -2.3934388706
 C         -5.0630309969        0.5977025182       -2.7826605975
 C         -6.1810532402        1.0783395034       -1.8565725430
 H         -6.6820000268        1.9060046786       -2.3626763251
 H         -6.9149515452        0.2815947224       -1.7311609613
 C         -5.7005162350        1.5601050675       -0.4804624134
 H         -4.6259262215        1.7549164552       -0.5178242121
 H         -6.1875638436        2.5068131002       -0.2357656471
 C         -5.9898315638        0.5921096007        0.6669254025
 H         -7.0695407484        0.4933497632        0.7990933551
 H         -5.5756006146        1.0159492323        1.5852719843
 C         -5.3905200504       -0.8077527530        0.4792634600
 H         -5.4607699239       -1.3404141306        1.4308177859
 H         -5.9527641893       -1.3597744782       -0.2736035910
 H         -4.2790065929        1.3571802314       -2.8332755194
 H         -5.4771325155        0.4813945986       -3.7869588297
 H         -3.7909984106       -1.0736075369       -3.2198719835
 H         -5.2040893194       -1.4860733402       -2.2322173234
 O         -2.2305842068       -0.5350530324       -1.5239416556
 C         -1.2277375789       -0.4468270893       -0.5622153315
 O         -0.0903353504       -0.2998679115       -1.0434916776
 H          2.0388662530       -0.1790513059        0.9627139855
 C          1.5868681338        0.7631741910        1.2254660207
 C          0.2812263780        0.8011302757        1.6918967326
 C         -0.2862513206        2.0355444772        1.9976552700
 C          0.4375932545        3.2030745551        1.8563407659
 C          1.7421515430        3.1599572316        1.3975417603
 C          2.3137967598        1.9366929236        1.0722507104
 N          3.6459095895        1.8673512709        0.6139348135
 S          3.9040201136        1.3041703403       -0.9534106742
 O          5.2055163835        1.8385915331       -1.3057999604
 O          2.8189481294        1.6733745888       -1.8314356999
 C          4.0509778534       -0.4604886592       -0.7965841791
 C          3.0748096491       -1.2869536079       -1.3142673831
 C          3.2518276733       -2.6596324192       -1.2217035072
 C          4.3846289584       -3.1748188746       -0.6108068753
 C          5.3495119996       -2.3275100384       -0.0860911017
 C          5.1861404432       -0.9557068088       -0.1837840167
 H          5.9184509401       -0.2600536470        0.1907819355
 H          6.2268899960       -2.7322312429        0.3921470013
 H          4.5138794990       -4.2437876090       -0.5428725230
 H          2.4986617841       -3.3184283942       -1.6243775201
 H          2.1914838743       -0.8487982654       -1.7520112621
 H          4.1466057269        2.7394976871        0.7234479148
 H          2.3147821479        4.0688145188        1.2837842780
 H         -0.0143192661        4.1522929361        2.1024358632
 H         -1.3079443781        2.0661251279        2.3516175293
 C         -0.5544605432       -0.4383285146        1.8842854159
 H         -1.1546931881       -0.2921587219        2.7979358567
 C          0.2737639930       -1.6916728752        2.1185164944
 C         -0.3723127517       -3.0433415373        2.0570785378
 C          0.6505638734       -2.6532890925        1.0347974604
 H          1.6268161374       -3.1127132027        1.0845974171
 H          0.3221712782       -2.4376178398        0.0311259893
 H         -0.1060633219       -3.7783381902        2.8013823963
 H         -1.4083818329       -3.0827334824        1.7529262687
 H          1.0050490934       -1.5424677071        2.9072330622
 O         -3.3167999707       -0.7176436454        2.3842143169
