  62
        -98.93933798
 C         -2.1217693548       -0.9711729061        0.1012196911
 C         -2.8123334225       -0.2890642212        1.1280737831
 C         -3.5393673646        0.9296626725        0.7334822789
 C         -3.4732077277        1.3430638390       -0.5441978692
 C         -4.1758037499        2.5212272786       -1.1600442273
 C         -5.5128687642        2.0885589701       -1.7856513658
 C         -6.7029732856        2.0887640983       -0.8268115084
 H         -6.9744944941        3.1203680788       -0.5932846246
 H         -7.5461882373        1.6399214869       -1.3566458355
 C         -6.4877569799        1.3308980819        0.4859152004
 H         -5.9744822216        0.3884336451        0.2869462587
 H         -7.4695835607        1.0843004875        0.8944609248
 C         -5.7060886368        2.1420326093        1.5300324938
 H         -5.6579674030        3.1824574923        1.2089630620
 H         -6.2519364686        2.1349284319        2.4756813397
 C         -4.2894383808        1.6308079988        1.8334433419
 H         -3.6789638274        2.4652159242        2.1955327757
 H         -4.3323154766        0.9004279816        2.6475582000
 H         -5.3768263478        1.0885774908       -2.2054369588
 H         -5.7453685318        2.7611680198       -2.6136737504
 H         -4.3203957275        3.3104079460       -0.4280207293
 H         -3.5230582378        2.8924234268       -1.9531470048
 O         -2.7632201490        0.6766725614       -1.4959909380
 C         -2.0734837375       -0.4889112966       -1.2068000945
 O         -1.4731461296       -0.9866864606       -2.1771858553
 H          0.1043469802       -0.2160030044        1.3285764802
 C          0.7082984234       -0.8878652159        0.7300021793
 C          0.1148666810       -2.0188502697        0.1813754194
 C          0.8995196457       -2.8713011968       -0.5828492269
 C          2.2359775996       -2.5833605899       -0.8027057175
 C          2.8189131910       -1.4522539285       -0.2624600230
 C          2.0446213547       -0.5964409066        0.5105662830
 N          2.6306723026        0.5529185429        1.0751516901
 S          3.4137980245        1.6098817261        0.0275650968
 O          3.3640579659        2.8978196911        0.6861897544
 O          2.8598723282        1.5476879799       -1.3053904242
 C          5.0960653890        1.0266550951        0.0235538863
 C          5.7064427845        0.6925313662       -1.1693352156
 C          7.0190683895        0.2467455166       -1.1479526734
 C          7.6937590477        0.1447296878        0.0589771373
 C          7.0667008960        0.4864477299        1.2481380462
 C          5.7552958285        0.9336701556        1.2338396562
 H          5.2321082469        1.2124188278        2.1332116551
 H          7.5945629001        0.4055895425        2.1846341119
 H          8.7144540587       -0.2034648456        0.0727168065
 H          7.5078677211       -0.0192375588       -2.0714120432
 H          5.1390769237        0.7823000725       -2.0821447719
 H          2.0000394935        1.0668830594        1.6743438200
 H          3.8571243696       -1.2219797519       -0.4376059403
 H          2.8318839442       -3.2502309911       -1.4068616277
 H          0.4628248805       -3.7546452664       -1.0184506765
 C         -1.3555550328       -2.2373206874        0.4415745955
 H         -1.4934732134       -2.3801903398        1.5236956288
 C         -1.9370777815       -3.4299484956       -0.2864362070
 C         -1.7953968461       -4.8057162699        0.2909488720
 C         -3.1295337109       -4.1239330895        0.2981839695
 H         -3.8975795977       -4.4808368875       -0.3714507881
 H         -3.5098797535       -3.7499199491        1.2376326231
 H         -1.6492408556       -5.6354424816       -0.3838267212
 H         -1.2707505829       -4.9013733156        1.2293676116
 H         -1.9024886349       -3.3174427416       -1.3641834138
 O         -2.8216187472       -0.6803989269        2.3277409978
