  62
        -98.93015100
 C         -2.4416196429       -1.0513339226        0.5195711680
 C         -2.5650979018        0.2564897211        1.0505336194
 C         -3.8405959727        0.9589205396        0.8271285813
 C         -4.8189777673        0.3393343884        0.1412265063
 C         -6.2283842960        0.7733078321       -0.2043081280
 C         -6.6618648937        2.2262412700       -0.0304633767
 C         -5.9961836024        3.2097827617       -0.9926247323
 H         -6.2926356748        4.2215443383       -0.7078896162
 H         -6.3777452343        3.0217568981       -1.9992848820
 C         -4.4725483343        3.1390595239       -1.0593873436
 H         -4.1347102093        3.8771130145       -1.7919902577
 H         -4.1649138539        2.1580273035       -1.4272770839
 C         -3.7457173975        3.4243163145        0.2534028123
 H         -4.0645459291        4.3908837015        0.6486520274
 H         -2.6766026585        3.4899409847        0.0315706070
 C         -3.9232067015        2.3631096733        1.3527398462
 H         -4.8489897781        2.5145458255        1.9029138768
 H         -3.0979703310        2.4721820421        2.0628735607
 H         -6.5173403350        2.5409988254        0.9987962067
 H         -7.7378679040        2.2551685423       -0.2222632407
 H         -6.8877458966        0.1403375177        0.3996515078
 H         -6.3852107652        0.4744345552       -1.2455397990
 O         -4.6586919805       -0.9242138868       -0.3455565783
 C         -3.4830242854       -1.6468848023       -0.1913575295
 O         -3.5189853990       -2.7696675947       -0.7248229903
 O         -1.6439928562        0.8151555759        1.7080385170
 C         -1.1246421303       -1.7652105872        0.7622519403
 C         -0.1541197051       -1.5254640525       -0.3664872971
 C         -0.5268481218       -1.7161948336       -1.6937063023
 C          0.3810715817       -1.4954269840       -2.7129340710
 C          1.6700541519       -1.0787503890       -2.4310993646
 C          2.0546703598       -0.8894592914       -1.1085860428
 C          1.1409320642       -1.1134399874       -0.0873602735
 H          1.4443713533       -0.9420989228        0.9344712968
 N          3.3729082287       -0.5122489864       -0.7997917633
 S          3.6505351534        0.5375050541        0.4945521115
 O          3.5337452611       -0.2025223634        1.7252676588
 O          2.8240654719        1.7163848813        0.3638622992
 C          5.3615741590        0.9433826998        0.1998646913
 C          5.6793361549        2.1201138346       -0.4514581324
 C          7.0118330037        2.4102029194       -0.6998521191
 C          7.9980618646        1.5223436279       -0.2972664271
 C          7.6636418541        0.3455396504        0.3564672811
 C          6.3335455818        0.0499246098        0.6088628243
 H          6.0263280811       -0.8466939542        1.1212939015
 H          8.4334565783       -0.3406263458        0.6706757797
 H          9.0341126330        1.7505492922       -0.4916000761
 H          7.2749359580        3.3258069902       -1.2045953491
 H          4.8794523967        2.7843893026       -0.7371932776
 H          3.8889567265       -0.2156324006       -1.6176666838
 H          2.3751656028       -0.9038550656       -3.2295534786
 H          0.0799522575       -1.6452413219       -3.7389313688
 H         -1.5317948614       -2.0433137527       -1.9142906477
 H         -0.7039324626       -1.2793317743        1.6581765095
 C         -1.2920708735       -3.2435303576        1.0879104152
 C         -0.8669493304       -4.3476984645        0.1719744845
 C         -0.0879989057       -4.0742617684        1.4211824604
 H         -0.1533965415       -4.7747634522        2.2398623821
 H          0.8793572537       -3.6048798234        1.3169407917
 H         -1.4922345957       -5.2261207452        0.1286387784
 H         -0.4234493075       -4.0833657887       -0.7746726009
 H         -2.1866073390       -3.4263748328        1.6749280286
