  62
        -98.94251702
 C         -1.8107829257       -1.5689782726        0.0819420248
 C         -1.4879449937       -0.1891187883        0.1357081253
 C         -2.5674843988        0.6951995948        0.6007267434
 C         -3.7597487485        0.1828054694        0.9506647524
 C         -4.9514824632        0.9612511300        1.4382640895
 C         -5.7977571436        1.5735048425        0.3133136416
 C         -5.1699940943        2.7733473642       -0.3978722214
 H         -4.8546200851        3.5082971382        0.3433217835
 H         -5.9561504937        3.2345399851       -0.9991590674
 C         -3.9894506640        2.4233007782       -1.3149843285
 H         -4.1053017921        2.9411675798       -2.2697965421
 H         -4.0011568237        1.3521847358       -1.5297124783
 C         -2.6183247540        2.8020522452       -0.7547634984
 H         -2.5513685897        3.8880581706       -0.6604489309
 H         -1.8542146873        2.4761005592       -1.4647480336
 C         -2.2997217439        2.1697389778        0.6058295257
 H         -2.8751126283        2.6576280506        1.3921142249
 H         -1.2348653201        2.3048681187        0.8073464940
 H         -6.7430184812        1.8956513675        0.7564327186
 H         -6.0241374010        0.7937333091       -0.4178327087
 H         -4.6236995612        1.7481255092        2.1182355371
 H         -5.5754160366        0.2588782812        1.9953095375
 O         -4.0186280243       -1.1521695182        0.9160935431
 C         -3.0563494618       -2.0534420348        0.4902886294
 O         -3.4234627310       -3.2454043662        0.5270814737
 O         -0.3731670269        0.2955274027       -0.1823698010
 C         -0.7953195161       -2.6097856631       -0.3608649174
 C          0.5359832925       -2.3066721749        0.2791977186
 C          0.6567498075       -2.4220125064        1.6609437194
 C          1.8394595426       -2.0963860710        2.2972225789
 C          2.9280846822       -1.6480310071        1.5697695143
 C          2.8163481144       -1.5287175479        0.1913628898
 C          1.6306498261       -1.8671183152       -0.4467763112
 H          1.5531423159       -1.7459721519       -1.5159033480
 N          3.9145506470       -1.0712858085       -0.5629555163
 S          4.6253722347        0.3845691262       -0.1425091025
 O          5.4773248076        0.7166198178       -1.2630744736
 O          5.2838773353        0.2393490917        1.1317870833
 C          3.3007078342        1.5702346291       -0.0163761083
 C          2.8582930487        2.1832517796       -1.1710537833
 C          1.8211217923        3.0964154161       -1.0897178065
 C          1.2439462217        3.3754840690        0.1385982752
 C          1.6921119701        2.7426756499        1.2868587371
 C          2.7296543020        1.8282535902        1.2122294457
 H          3.1083782062        1.3196261083        2.0837853461
 H          1.2340382693        2.9547337188        2.2402231003
 H          0.4381055977        4.0905040135        0.1991911005
 H          1.4630196216        3.5849108938       -1.9819382032
 H          3.3423597931        1.9486488920       -2.1057805184
 H          3.7398732013       -1.0801816380       -1.5580777878
 H          3.8541963850       -1.3765271048        2.0500848851
 H          1.9154248942       -2.1881893263        3.3704447020
 H         -0.1985097143       -2.7565673673        2.2329966585
 H         -1.1631786054       -3.5638777452        0.0502864790
 C         -0.7095999561       -2.7899744106       -1.8693970880
 C         -1.9293015795       -2.6424528613       -2.7277915560
 C         -0.8206230765       -1.6400132988       -2.8235264100
 H         -0.2022178806       -1.6473706097       -3.7096690896
 H         -0.9760801313       -0.6571491075       -2.4075367548
 H         -2.0705929000       -3.3365179381       -3.5426769233
 H         -2.8486565930       -2.3491853541       -2.2421193601
 H         -0.0246815197       -3.5874681112       -2.1422515671
