  62
        -98.94134782
 C          1.8752433773        0.5615677140       -0.0176388305
 C          2.6142735212        0.1463661242        1.1193577819
 C          3.7212115809       -0.7826644330        0.8675052907
 C          3.9276587813       -1.2495043950       -0.3768400023
 C          5.0030799917       -2.2158130678       -0.7930716832
 C          6.3576453425       -1.5526552082       -1.0786726000
 C          7.1164863394       -1.0637257144        0.1558379931
 H          7.1888107118       -1.8747893058        0.8811689695
 H          8.1316950155       -0.8241374483       -0.1668307081
 C          6.5062612510        0.1757260336        0.8252998322
 H          5.8172588484        0.6619111195        0.1304877016
 H          7.2966510094        0.8961779689        1.0470935901
 C          5.7714285557       -0.1078185209        2.1356554456
 H          5.3498106377        0.8316314633        2.5028399996
 H          6.4808018013       -0.4720725082        2.8819671578
 C          4.6284851387       -1.1239152726        2.0106600287
 H          5.0301324311       -2.1300497503        1.8916484521
 H          4.0357660473       -1.0890754529        2.9280933649
 H          6.9790716830       -2.2899249261       -1.5920964193
 H          6.1995800440       -0.7169317229       -1.7644546998
 H          5.1255597199       -2.9819863165       -0.0268113843
 H          4.6529705153       -2.6943340038       -1.7103776284
 O          3.1390980871       -0.8996743904       -1.4261680041
 C          2.1096906368        0.0258585207       -1.2853648746
 O          1.4984657202        0.2585935046       -2.3435990691
 O          2.3557379170        0.5300980772        2.2914532416
 C          0.7575870172        1.5654342316        0.2015455624
 C         -0.5033121232        1.1023766656       -0.4829330176
 C         -1.1452045743        1.8164689907       -1.4850784503
 C         -2.2918679602        1.3155733599       -2.0774011316
 C         -2.8263639208        0.1044989819       -1.6804745028
 C         -2.1995081109       -0.6118740957       -0.6680220729
 C         -1.0540777603       -0.1066369422       -0.0733404057
 H         -0.5607089398       -0.6707156691        0.7090731132
 N         -2.7430216546       -1.8367339437       -0.2468195180
 S         -4.4000937968       -1.9391431655       -0.0433927088
 O         -4.5945182425       -2.9709079844        0.9514549042
 O         -5.0352530242       -2.1682563861       -1.3172538184
 C         -4.8937732464       -0.3494277713        0.5998300934
 C         -4.3466085479        0.0653277409        1.7979470930
 C         -4.6919408149        1.3103822346        2.2972793531
 C         -5.5746601267        2.1155889299        1.5934854209
 C         -6.1205822573        1.6821515290        0.3955518700
 C         -5.7768240916        0.4384191776       -0.1097709690
 H         -6.1750946630        0.0636294840       -1.0385341761
 H         -6.8085785255        2.3091988473       -0.1481077626
 H         -5.8383212389        3.0860331906        1.9832334456
 H         -4.2687507173        1.6485140334        3.2295602947
 H         -3.6674235233       -0.5865569522        2.3239117693
 H         -2.2474091518       -2.2694027999        0.5179437076
 H         -3.7053343049       -0.3077325187       -2.1488076611
 H         -2.7721686488        1.8735196371       -2.8665413492
 H         -0.7317342728        2.7513829801       -1.8247762114
 H          0.5797786854        1.5355293454        1.2898546499
 C          1.1366092313        3.0007293331       -0.1313274869
 C          2.5563088746        3.4674142505       -0.0170494539
 C          1.9071342195        3.3661617323       -1.3631487560
 H          1.6489222955        4.2813913814       -1.8757236607
 H          2.2053431624        2.5669440486       -2.0232474111
 H          2.7438760286        4.4480249430        0.3939331939
 H          3.3049966227        2.7341190114        0.2462689345
 H          0.3750188728        3.7038157541        0.1913085936
