  62
        -98.94357549
 C          1.8683179493       -0.8390560570       -0.7227654034
 C          2.1907405604       -0.4268857168        0.5930329796
 C          3.6207555194       -0.4371235932        0.9266680791
 C          4.5182423716       -0.8601632025        0.0179075172
 C          6.0072776912       -0.9452633720        0.2172627948
 C          6.7449565441        0.3764381737       -0.0374532528
 C          6.5465280142        1.4491298455        1.0343137774
 H          6.7677859582        1.0264400070        2.0148085209
 H          7.2831732022        2.2321548485        0.8434686426
 C          5.1473814547        2.0809280657        1.0476416786
 H          4.6420561193        1.8680014206        0.1026854234
 H          5.2389666448        3.1668874236        1.1223618083
 C          4.2540124526        1.6215523366        2.2000881701
 H          3.2775030531        2.0996813553        2.0874916578
 H          4.6835154123        1.9499404236        3.1491494512
 C          4.0330872430        0.1044394208        2.2619597865
 H          4.9354747873       -0.3938319247        2.6153276960
 H          3.2217679327       -0.0951185502        2.9659325129
 H          7.8114697687        0.1479937278       -0.0995224658
 H          6.4328517475        0.7689337143       -1.0081713594
 H          6.2235652437       -1.2958525399        1.2266727092
 H          6.3745919349       -1.6870173250       -0.4952255244
 O          4.1608517971       -1.2878710149       -1.2230553745
 C          2.8369082085       -1.2613327442       -1.6320626728
 O          2.6540311484       -1.6336176448       -2.8096547405
 O          1.3345880966       -0.0681396860        1.4416017791
 C          0.4225158646       -0.8256658107       -1.1809089699
 C         -0.1777601162        0.5496837627       -1.0143802448
 C          0.5804120067        1.6715132736       -1.3395982767
 C          0.0586454985        2.9425359380       -1.2015235366
 C         -1.2398602121        3.1231294991       -0.7586648273
 C         -2.0124472912        2.0113172210       -0.4490745671
 C         -1.4786642936        0.7353285009       -0.5725992234
 H         -2.0947158057       -0.1134750766       -0.3272083444
 N         -3.3276769553        2.1608847849        0.0120939053
 S         -4.5202181127        1.0935941708       -0.4701097682
 O         -4.3037264297        0.6222010305       -1.8179749616
 O         -5.7592820834        1.8067884560       -0.2410061655
 C         -4.4216984742       -0.2607285106        0.6812601657
 C         -4.7065594527       -1.5357226220        0.2341596890
 C         -4.6805151600       -2.5861347565        1.1385306296
 C         -4.3709338053       -2.3440158620        2.4678183196
 C         -4.0889047930       -1.0572916097        2.9009551896
 C         -4.1184227249       -0.0021301520        2.0032179409
 H         -3.9011493510        1.0081838427        2.3069311275
 H         -3.8447382192       -0.8731911290        3.9348365849
 H         -4.3475862542       -3.1629578707        3.1694168567
 H         -4.8996066761       -3.5874748553        0.8027251394
 H         -4.9302202160       -1.6810760909       -0.8108264191
 H         -3.6640421710        3.1119037157        0.0480670896
 H         -1.6506097123        4.1157664897       -0.6526688866
 H          0.6648215241        3.8016687612       -1.4474245640
 H          1.5923738584        1.5331100019       -1.6962515304
 H          0.4388131388       -1.0585219441       -2.2565070368
 C         -0.3542363879       -1.9097922175       -0.4612716244
 C         -1.4992825331       -2.6013816729       -1.1359623902
 C         -0.2060844811       -3.3275055685       -0.9223740071
 H         -0.1704647420       -4.1107065348       -0.1803766023
 H          0.4320519276       -3.5047443849       -1.7761744133
 H         -2.3505399227       -2.8868090672       -0.5365451297
 H         -1.7519355698       -2.2908843361       -2.1389976516
 H         -0.4192826044       -1.7331586138        0.6063930085
