  62
        -98.93747893
 C         -2.4083856288       -1.1357546141       -0.0111190102
 C         -3.3787876937       -0.6232211193        0.8875356652
 C         -4.3662938996        0.3337793470        0.3549129059
 C         -4.3071171607        0.6592012704       -0.9494752113
 C         -5.1722395676        1.6265013818       -1.7127391690
 C         -4.8155001617        3.0941955651       -1.4273947390
 C         -4.5809383594        3.4238840221        0.0444337807
 H         -4.2344220634        4.4591807749        0.1009676029
 H         -3.7778576120        2.7928301810        0.4296818612
 C         -5.8073319764        3.2924126352        0.9444063964
 H         -6.5961027237        3.9506468357        0.5733860716
 H         -5.5193648330        3.6465913004        1.9375237760
 C         -6.3811639598        1.8815511272        1.0928642673
 H         -6.9664865116        1.6012065435        0.2212109485
 H         -7.0746410741        1.9002582528        1.9386862694
 C         -5.3476192658        0.8029915681        1.4017717835
 H         -5.8739334000       -0.0993316248        1.7357939613
 H         -4.7452041369        1.1180032290        2.2613806948
 H         -5.6133122080        3.7255622515       -1.8221373845
 H         -3.8976857012        3.3302719982       -1.9715493994
 H         -6.2203900907        1.4348840197       -1.5030040498
 H         -5.0037322338        1.4274963266       -2.7734972877
 O         -3.3618990167        0.1377233233       -1.7803836151
 C         -2.3968111964       -0.7547658238       -1.3518872560
 O         -1.6178319465       -1.1130797988       -2.2600808462
 O         -3.4243784739       -0.9546139720        2.1027357357
 C         -1.4057843322       -2.1231456494        0.5616899069
 C         -0.0738793275       -1.4703164025        0.8476936186
 C          0.4203222474       -1.4015362073        2.1450510212
 C          1.6505421807       -0.8213749451        2.4005068302
 C          2.4096994681       -0.2950710739        1.3708606064
 C          1.9240942910       -0.3566231851        0.0710988079
 C          0.6938309289       -0.9464138317       -0.1828091728
 H          0.3186166641       -0.9870470796       -1.1949205146
 N          2.6735136503        0.1989035627       -0.9806770543
 S          4.2858974396       -0.2432738001       -1.1300854948
 O          4.6123599145       -0.0307456427       -2.5230996517
 O          4.5221401679       -1.5700885799       -0.6092724909
 C          5.1512480729        0.9608828036       -0.1435824163
 C          5.9889128656        0.5465779894        0.8734814760
 C          6.6572197064        1.5027302893        1.6225698709
 C          6.4779206694        2.8486569458        1.3420388457
 C          5.6356127638        3.2481945934        0.3148813802
 C          4.9655916866        2.2974522926       -0.4383214536
 H          4.3055965586        2.5653120932       -1.2466888703
 H          5.4988971000        4.2956660302        0.0990948832
 H          6.9978848961        3.5909799543        1.9267962803
 H          7.3129122249        1.1941625077        2.4209200017
 H          6.0933729443       -0.5107163508        1.0585133570
 H          2.2047060223        0.1467091161       -1.8739058680
 H          3.3673451031        0.1601440095        1.5635466398
 H          2.0216316362       -0.7755113973        3.4129460003
 H         -0.1726008221       -1.7980900578        2.9563397726
 H         -1.8350364645       -2.4372224781        1.5226378469
 C         -1.2195324089       -3.3549901146       -0.3034713115
 C         -0.6897647189       -4.6087940346        0.3222869211
 C         -2.1232181694       -4.5335760344       -0.1088946219
 H         -2.4333671868       -5.0930213048       -0.9786924515
 H         -2.8824112142       -4.4596981308        0.6560750667
 H         -0.0098284516       -5.2215150378       -0.2496250608
 H         -0.4771700725       -4.5876369072        1.3803814762
 H         -0.9108603398       -3.1288624732       -1.3160285705
