  62
        -98.94005092
 C          1.7345485276        1.3023313121        0.5482495405
 C          1.5446602627        0.2729273554       -0.4083661067
 C          2.7666419104       -0.2283915195       -1.0564642311
 C          3.9634773545        0.2961834971       -0.7412471620
 C          5.2897043500       -0.0949622911       -1.3342049575
 C          5.9309013873       -1.3206137903       -0.6693255248
 C          5.2616418299       -2.6583642029       -0.9877080880
 H          5.1663727912       -2.7682776701       -2.0684001505
 H          5.9343247081       -3.4443102737       -0.6386091894
 C          3.8898658588       -2.8551339570       -0.3264453008
 H          3.7707162082       -2.1384131869        0.4896339815
 H          3.8375760277       -3.8524485648        0.1163013345
 C          2.7014913086       -2.7212057109       -1.2790867358
 H          1.7805090359       -2.8421218826       -0.7014281151
 H          2.7364658004       -3.5207010770       -2.0229136801
 C          2.6282952285       -1.3751220052       -2.0116484346
 H          3.3960369560       -1.3246333332       -2.7837109802
 H          1.6467667164       -1.3004201115       -2.4863819973
 H          6.9687244104       -1.3691105083       -1.0068299553
 H          5.9399815555       -1.1667265616        0.4122240651
 H          5.1746824947       -0.2776923264       -2.4028893642
 H          5.9561816154        0.7592239377       -1.1963259959
 O          4.1035776683        1.2890249899        0.1765898627
 C          3.0079118458        1.7860958572        0.8634997444
 O          3.2943486015        2.6487522059        1.7179248926
 H         -1.8971738926        0.8859770561        0.6343452417
 C         -1.4725492235        0.3893904032        1.4911646168
 C         -0.2254302133        0.7670558956        1.9657035764
 C          0.3111162129        0.0887423575        3.0568789517
 C         -0.3879168414       -0.9323772682        3.6702995314
 C         -1.6346529661       -1.3016830619        3.1977443814
 C         -2.1729788199       -0.6446669791        2.0988359845
 N         -3.4461658536       -0.9975720325        1.6043227599
 S         -3.5233308783       -1.6537990040        0.0534698055
 O         -4.7788442667       -2.3798504984        0.0436050735
 O         -2.3478791616       -2.4364766245       -0.2464952999
 C         -3.6772007531       -0.2565004733       -1.0344816322
 C         -4.8783603817        0.4263540506       -1.0310869062
 C         -5.0422056347        1.4965390373       -1.8947750510
 C         -4.0106195231        1.8550362984       -2.7501156891
 C         -2.8124462667        1.1578348649       -2.7396116619
 C         -2.6359502269        0.0916604518       -1.8701294801
 H         -1.7065665870       -0.4519309276       -1.8073267203
 H         -2.0086942305        1.4403365691       -3.4010799386
 H         -4.1391958261        2.6838547900       -3.4287640181
 H         -5.9708956491        2.0441089877       -1.9030937568
 H         -5.6585133768        0.0995912797       -0.3639004060
 H         -3.9575847775       -1.6060035820        2.2299429901
 H         -2.1868532535       -2.1003663768        3.6712332611
 H          0.0390739015       -1.4456408723        4.5189397572
 H          1.2889138642        0.3768789317        3.4196588669
 C          0.5819122926        1.8833282264        1.3512099774
 H          1.0670252830        2.4291493571        2.1769694822
 C         -0.2686850694        2.9025755906        0.6093596037
 C          0.3875896514        3.9390363320       -0.2531119651
 C         -0.4775461958        2.8850785883       -0.8726282849
 H         -1.4476563003        3.1743427786       -1.2491482416
 H         -0.0063207504        2.0989897599       -1.4395765476
 H          1.4577422721        3.8662281506       -0.3845859128
 H          0.0201853946        4.9531720559       -0.2124231198
 H         -1.1057779927        3.2385485091        1.2137712300
 O          0.4271525854       -0.2045065800       -0.7272702491
