  62
        -98.93217396
 C          2.2621281557        0.6019961745       -0.4496738171
 C          3.4541437906        0.9931334380        0.2120402149
 C          4.3899921930       -0.0823668402        0.5690902254
 C          4.0596373228       -1.3553503407        0.2857511202
 C          4.9302344922       -2.5569229551        0.5203922691
 C          6.0181980715       -2.6396006448       -0.5693787476
 C          7.4443097839       -2.4530613712       -0.0511199164
 H          7.7607541989       -3.3679441577        0.4541951468
 H          8.0923849427       -2.3151632222       -0.9192242250
 C          7.6548550525       -1.2862020509        0.9185541436
 H          7.3210652806       -1.5733111305        1.9168041627
 H          8.7320788292       -1.1201378220        0.9868423686
 C          6.9764010038        0.0354833265        0.5356444523
 H          6.8035382677        0.0821643223       -0.5397600426
 H          7.6584377389        0.8513829796        0.7834154940
 C          5.6556418013        0.3163459267        1.2765688056
 H          5.6843030707       -0.1512127202        2.2647733876
 H          5.5625587715        1.3958381373        1.4278648162
 H          5.8026448479       -1.8824854639       -1.3262008809
 H          5.9601000293       -3.6078221497       -1.0688540794
 H          4.2868293971       -3.4361166681        0.4827089354
 H          5.3810367923       -2.4968235712        1.5084608125
 O          2.8998293914       -1.6939043147       -0.3317818395
 C          1.9731438085       -0.7358150851       -0.7172578830
 O          0.9683976077       -1.2116563381       -1.2798148837
 O          3.7242138544        2.1927293994        0.4886019833
 C          1.2765773841        1.6978894317       -0.8232802750
 C          0.1035117546        1.6474329092        0.1258961603
 C          0.1188827135        2.4217836850        1.2817787203
 C         -0.9291310005        2.3657595167        2.1824597299
 C         -2.0078663978        1.5290884266        1.9571752948
 C         -2.0280999332        0.7446544702        0.8113992004
 C         -0.9851741685        0.8191900014       -0.1031729048
 H         -1.0011441182        0.1929858129       -0.9816593802
 N         -3.0957213900       -0.1472944200        0.5895584749
 S         -4.6642928876        0.4500615212        0.7642781665
 O         -4.8292797128        1.6615650229       -0.0093762880
 O         -4.9581349169        0.5612778773        2.1711230654
 C         -5.6099085937       -0.8801255601        0.0512533442
 C         -6.0444583197       -0.7804601048       -1.2565012265
 C         -6.7544401653       -1.8350658864       -1.8087177878
 C         -7.0126041575       -2.9659958677       -1.0489541126
 C         -6.5692810727       -3.0511730683        0.2626225726
 C         -5.8602301434       -1.9998914824        0.8212651035
 H         -5.5030784380       -2.0183986658        1.8376263730
 H         -6.7738013654       -3.9316045388        0.8501899288
 H         -7.5647152216       -3.7854592120       -1.4813867246
 H         -7.1023632551       -1.7710520221       -2.8271680864
 H         -5.8270353834        0.1206380488       -1.8074098715
 H         -2.9959556952       -0.6273921967       -0.2950865877
 H         -2.8320189234        1.4762200522        2.6499827073
 H         -0.9063631051        2.9773631983        3.0720891638
 H          0.9686049483        3.0623904522        1.4716966186
 H          1.8122266669        2.6391384893       -0.6412585292
 C          0.8683634354        1.6499790864       -2.2812992331
 C          0.1879212017        2.8411399916       -2.8844498551
 C          1.5953186821        2.5048622121       -3.2738534607
 H          1.7768171090        2.1062928192       -4.2607542842
 H          2.3915396799        3.1343356890       -2.9043165435
 H         -0.5996626505        2.6769623382       -3.6038464108
 H          0.0276238578        3.6978866854       -2.2472569070
 H          0.5570386487        0.6680049311       -2.6134687134
