  62
        -98.94127227
 C         -1.6988805559       -1.4358582678       -0.2367498877
 C         -2.7499237033       -0.7454245128        0.4063303226
 C         -3.1958876067        0.5063066139       -0.2245759290
 C         -2.5976590724        0.9255467062       -1.3531136943
 C         -2.9195263771        2.1371304007       -2.1923011415
 C         -3.1909044001        3.4573439108       -1.4598555857
 C         -2.3860185660        3.6612233022       -0.1679436216
 H         -1.5827068596        2.9239119887       -0.0969825942
 H         -1.9115033417        4.6446110253       -0.1960407214
 C         -3.2552711079        3.5993627883        1.0905581756
 H         -2.7214261808        4.0947812801        1.9056272820
 H         -4.1757264501        4.1602332966        0.9111149475
 C         -3.6119419463        2.1943796111        1.5726758906
 H         -2.7095432789        1.6990289069        1.9439490887
 H         -4.2970336701        2.2908041386        2.4189844981
 C         -4.2509755228        1.2734605467        0.5193322707
 H         -4.8958425922        1.8330698151       -0.1536745676
 H         -4.8551016533        0.5283112020        1.0444707252
 H         -2.9581491101        4.2599453641       -2.1619468334
 H         -4.2532290349        3.5376600760       -1.2317184571
 H         -2.0567594862        2.2593370235       -2.8514692392
 H         -3.7800452915        1.8948926929       -2.8235506539
 O         -1.5874297143        0.2280021057       -1.9404310756
 C         -1.0732098006       -0.9223817055       -1.3720629263
 O         -0.0885264509       -1.3961574987       -1.9717568038
 O         -3.2929486073       -1.1567923213        1.4696092902
 C         -1.1201118873       -2.6827295669        0.4132999060
 C          0.3109149542       -2.3783406274        0.7802848392
 C          1.3984498469       -3.1653793402        0.4266137765
 C          2.6903270747       -2.7377122086        0.6862691918
 C          2.9249272419       -1.5073866633        1.2736783925
 C          1.8411826785       -0.7290306776        1.6561254407
 C          0.5526338701       -1.1811717310        1.4437960991
 H         -0.2838142255       -0.5575792893        1.7354742829
 N          2.0741738492        0.5895106268        2.1525354637
 S          1.8343903530        1.7018160732        0.8974037441
 O          2.0970537490        3.0043116786        1.4734191551
 O          0.5296907613        1.5491898724        0.2899065070
 C          3.1276923661        1.2497403485       -0.2317927012
 C          2.8640832242        0.3555926335       -1.2504042031
 C          3.9071889806       -0.0342007172       -2.0769497531
 C          5.1819703947        0.4702713392       -1.8712832605
 C          5.4275937280        1.3687774519       -0.8433438624
 C          4.3921161871        1.7610955653       -0.0112267109
 H          4.5302094536        2.4561894825        0.8005381483
 H          6.4199623560        1.7597896398       -0.6866986506
 H          5.9883194271        0.1599468002       -2.5169901035
 H          3.7107806607       -0.7355063258       -2.8719997988
 H          1.8630068401       -0.0264005438       -1.3863629454
 H          1.4455558188        0.8364075042        2.9066431065
 H          3.9253058099       -1.1391668769        1.4325507877
 H          3.5250223311       -3.3566466774        0.3960920496
 H          1.2346615447       -4.1046140212       -0.0759554885
 H         -1.7011408363       -2.8335333103        1.3350823636
 C         -1.2801107903       -3.8943635343       -0.4778129250
 C         -1.3351527145       -5.2670644081        0.1219236806
 C         -2.5739147251       -4.6495286410       -0.4516770367
 H         -2.9629664196       -5.0362881362       -1.3814074043
 H         -3.3374280202       -4.3016018437        0.2287969596
 H         -0.8757381997       -6.0830117664       -0.4148926274
 H         -1.2603118846       -5.3464529553        1.1958516479
 H         -0.7920960071       -3.7709666901       -1.4378778434
