  62
        -98.93163638
 C         -2.4909920006       -0.7906306096       -0.0230758079
 C         -2.9241772131        0.3539917425        0.6925698564
 C         -4.0656189459        1.0974209934        0.1368962412
 C         -4.6296511231        0.6718487740       -1.0061212551
 C         -5.7709307948        1.2851681262       -1.7783871427
 C         -6.9713917538        1.8048240917       -0.9761868569
 C         -7.2938713230        1.0092853704        0.2971505685
 H         -8.3529744133        0.7448541103        0.2921568631
 H         -6.7258078418        0.0774765285        0.3102260633
 C         -7.0125683946        1.7957569575        1.5797301044
 H         -7.5853367420        1.3510999686        2.3972299171
 H         -7.3712066291        2.8190424419        1.4487795813
 C         -5.5494818634        1.8313139343        2.0198214809
 H         -5.2444181421        0.8424374431        2.3729119017
 H         -5.4706271546        2.5123035992        2.8707384885
 C         -4.5439616977        2.2707214068        0.9430180558
 H         -4.9598798915        3.0509768770        0.3102342342
 H         -3.6603628128        2.6673342683        1.4504089850
 H         -6.8085295179        2.8484260491       -0.7108287164
 H         -7.8318275776        1.7822429848       -1.6470997281
 H         -5.3687022541        2.0991981885       -2.3884960172
 H         -6.1011524921        0.5022564056       -2.4653692905
 O         -4.1786922469       -0.4293569407       -1.6674532073
 C         -3.1070586194       -1.1864102167       -1.2100426270
 O         -2.8315392524       -2.1517285461       -1.9444036575
 O         -2.3732918947        0.7405840857        1.7587082163
 C         -1.3191923799       -1.5537350999        0.5672072648
 C         -0.0120695273       -1.0434892508        0.0163519400
 C          0.2086195151       -0.9493930385       -1.3542469865
 C          1.4196059252       -0.4882176590       -1.8373362128
 C          2.4291411945       -0.1070505551       -0.9703393840
 C          2.2188599930       -0.1936821409        0.3989230607
 C          1.0028337722       -0.6622723612        0.8813884726
 H          0.8380103819       -0.7170525898        1.9492450874
 N          3.2322403320        0.2082749721        1.2830423394
 S          4.7920819789       -0.3622382615        1.0402997861
 O          4.7835775132       -1.6508189991        0.3883219363
 O          5.4199642829       -0.3021607052        2.3417803968
 C          5.5365886323        0.8580540667       -0.0206519274
 C          5.5473876346        2.1720111990        0.4046815759
 C          6.1298415470        3.1327636981       -0.4062889114
 C          6.6913036207        2.7651982988       -1.6201976317
 C          6.6762988679        1.4411079523       -2.0309540310
 C          6.0940708295        0.4752318746       -1.2248320030
 H          6.0555871338       -0.5653624615       -1.5056804770
 H          7.1141871400        1.1572146233       -2.9744418115
 H          7.1437016942        3.5152064503       -2.2496287792
 H          6.1440322784        4.1634268062       -0.0902161015
 H          5.1048212891        2.4162380533        1.3559784071
 H          2.9728092857        0.1579168911        2.2574801355
 H          3.3725150736        0.2547791733       -1.3450295521
 H          1.5790247777       -0.4222865644       -2.9030022301
 H         -0.5769693485       -1.2466060646       -2.0327076406
 H         -1.3399821712       -1.3051204844        1.6405736986
 C         -1.4619545066       -3.0651601158        0.4554509264
 C         -0.6142879134       -3.9223261455       -0.4305190257
 C         -0.4183930496       -3.9623635358        1.0535375357
 H         -0.7363498407       -4.8382210604        1.5985453745
 H          0.4724495676       -3.4957493401        1.4482046312
 H         -1.0909375373       -4.7589588557       -0.9178312563
 H          0.1462773268       -3.4480680530       -1.0302294091
 H         -2.4940583899       -3.3799250492        0.5730937526
