  62
        -98.94100762
 C          1.4744960188        0.7556358020        0.4491862551
 C          2.5283779083        0.8959309941       -0.4881400167
 C          3.4178724781       -0.2679524159       -0.6220355636
 C          3.1744162801       -1.3902868806        0.0765889227
 C          3.9698826299       -2.6659184067        0.0145363441
 C          5.2143221104       -2.6699060279        0.9129795044
 C          6.3691517358       -1.7914405389        0.4301720902
 H          7.2442378503       -2.0566019082        1.0268823386
 H          6.5986102358       -2.0326593163       -0.6081952325
 C          6.1177043607       -0.2832358160        0.5669690680
 H          5.2881741994       -0.1135832481        1.2575626707
 H          6.9981258542        0.1947490641        1.0026273462
 C          5.8191664789        0.4314360975       -0.7511414373
 H          6.6962367046        0.3833282251       -1.4002776825
 H          5.6198142805        1.4837738938       -0.5329711719
 C          4.6139201195       -0.1315630890       -1.5153679003
 H          4.3553518421        0.5697869863       -2.3122278503
 H          4.8679343948       -1.0922314913       -1.9623702527
 H          5.5706983149       -3.7009877387        0.9710783891
 H          4.9198449848       -2.3636893736        1.9195988596
 H          4.2636649443       -2.8656052589       -1.0162804586
 H          3.3044459292       -3.4648043400        0.3485904797
 O          2.1248738678       -1.5008133806        0.9348448776
 C          1.2777693369       -0.4296432831        1.1622582850
 O          0.3919302698       -0.6540376026        2.0125511619
 O          2.7338369360        1.9222211013       -1.1835857581
 C          0.4658133386        1.8580122938        0.7349029038
 C         -0.6696786056        1.7491994373       -0.2502626836
 C         -0.4495731145        1.8878817960       -1.6185064011
 C         -1.4961527254        1.7563515417       -2.5112493102
 C         -2.7730099051        1.4625023141       -2.0630541386
 C         -3.0000488625        1.3099555237       -0.7012680693
 C         -1.9516523732        1.4664329578        0.1963317972
 H         -2.1446693494        1.3426244104        1.2513808856
 N         -4.2841602299        1.0023957842       -0.2147574024
 S         -4.4483546668       -0.2926675853        0.8376962922
 O         -5.8630964332       -0.5957204969        0.8166888387
 O         -3.8918051194        0.0439595690        2.1214854400
 C         -3.5372668188       -1.6091220887        0.0525144588
 C         -4.1850133239       -2.3434655130       -0.9232064468
 C         -3.4822415320       -3.3196167428       -1.6090226152
 C         -2.1434744747       -3.5372358582       -1.3180064070
 C         -1.5097177855       -2.7921411228       -0.3366656582
 C         -2.2084575533       -1.8173657237        0.3595518102
 H         -1.7259879118       -1.2355378272        1.1296073027
 H         -0.4690728065       -2.9528411540       -0.0999742140
 H         -1.5911725941       -4.2922950231       -1.8550619786
 H         -3.9755393728       -3.9044295172       -2.3685610098
 H         -5.2282499755       -2.1473572454       -1.1117670505
 H         -4.9903817450        0.9513121871       -0.9358239156
 H         -3.5883748156        1.3512896052       -2.7616334029
 H         -1.3154396309        1.8734676606       -3.5689574239
 H          0.5503489399        2.0986616501       -1.9662520434
 H          0.0595738401        1.6257253945        1.7320500164
 C          1.0950533650        3.2436586280        0.8070200488
 C          0.6552806434        4.3986126796       -0.0385004322
 C          0.3188567004        4.3723051726        1.4196885408
 H          0.8274805053        5.0516266096        2.0870956125
 H         -0.7071957496        4.1726922194        1.6929454843
 H          1.4163545165        5.0821339584       -0.3830929087
 H         -0.1446632445        4.2445475328       -0.7452492613
 H          2.1524561620        3.2040456886        1.0442732182
