  62
        -98.94362102
 C         -1.8147516279       -0.3298378370       -0.2891192085
 C         -2.9730906968       -0.6460188282       -1.0374730939
 C         -4.2417443082       -0.6230592952       -0.2976265115
 C         -4.2308773895       -0.3307657920        1.0160955273
 C         -5.4538407883       -0.2249334779        1.8795952111
 C         -5.9946789116        1.2115434860        1.9039273020
 C         -6.1499453007        1.8367280687        0.5176052118
 H         -6.5665086556        2.8367032771        0.6564601224
 H         -5.1614368105        1.9595893823        0.0692931577
 C         -7.0445598987        1.0393317657       -0.4416736068
 H         -7.6622049233        0.3394887549        0.1223981949
 H         -7.7200766103        1.7317127593       -0.9485078413
 C         -6.2856852182        0.2797090760       -1.5313228116
 H         -5.5957262093        0.9585859292       -2.0388277875
 H         -7.0105040324       -0.0648278283       -2.2738215030
 C         -5.4950943097       -0.9476863627       -1.0609396398
 H         -6.1451617590       -1.6013760132       -0.4756442536
 H         -5.1700349265       -1.4944136751       -1.9511596304
 H         -6.9597596185        1.2080601514        2.4138638825
 H         -5.3058702883        1.8305185480        2.4832851378
 H         -6.2166100004       -0.9052155685        1.5056772102
 H         -5.1835405886       -0.5192311767        2.8950943249
 O         -3.0955740181       -0.0500409645        1.7049160762
 C         -1.8600100141       -0.0359101986        1.0738343601
 O         -0.9040244945        0.2438063670        1.8203548926
 H          2.1868555887       -0.0453695306       -0.2931328278
 C          1.7884161779       -1.0163541330       -0.0521361192
 C          0.4664171095       -1.3191040772       -0.3367858580
 C         -0.0069876062       -2.5916795087       -0.0256104733
 C          0.8152289571       -3.5247550850        0.5739330038
 C          2.1336004366       -3.2163418813        0.8610779898
 C          2.6211762770       -1.9559286624        0.5416373876
 N          3.9466325235       -1.6064495110        0.8336464720
 S          4.8258474745       -0.6556076917       -0.2219813303
 O          4.4786265892       -0.9222503244       -1.5983455201
 O          6.2072548855       -0.8970710577        0.1383613119
 C          4.4088098894        1.0223494512        0.2030057717
 C          4.3672359983        1.9694951397       -0.8010659513
 C          4.0880052970        3.2865219985       -0.4709770251
 C          3.8560246044        3.6315212014        0.8513806683
 C          3.9039283464        2.6687100073        1.8480550549
 C          4.1874214607        1.3512004489        1.5254640123
 H          4.2263646534        0.5793059680        2.2757223440
 H          3.7188949727        2.9395071451        2.8751306011
 H          3.6347527441        4.6559830491        1.1063350092
 H          4.0503886367        4.0366670850       -1.2450980487
 H          4.5420248399        1.6547894665       -1.8177499927
 H          4.5078148752       -2.3414298274        1.2379736052
 H          2.7778907059       -3.9443267493        1.3302694063
 H          0.4298325027       -4.5039091086        0.8160867623
 H         -1.0352165561       -2.8370923765       -0.2546540080
 C         -0.4670176072       -0.3274557554       -0.9859967754
 H         -0.6665149804       -0.6722333603       -2.0121956143
 C          0.0893641227        1.0799234387       -1.0454958315
 C          0.9919739973        1.4934464163       -2.1679764253
 C         -0.4126626874        2.0113904876       -2.1063428707
 H         -0.5695272988        3.0483848744       -1.8506422177
 H         -1.1353758720        1.6196430148       -2.8073359633
 H          1.7991649765        2.1763422497       -1.9503488822
 H          1.2331149055        0.7529178498       -2.9159127433
 H          0.2748453335        1.4943723566       -0.0606337336
 O         -2.9458031666       -0.9407375740       -2.2634012434
