  62
        -98.93628327
 C         -2.6933549095       -1.2434599452        0.2079640242
 C         -2.6867622080       -0.2626147445       -0.8113773128
 C         -3.8112578018        0.6898007941       -0.8037010189
 C         -4.7667897814        0.5792817612        0.1346563398
 C         -6.0091408446        1.4162037803        0.3099728559
 C         -5.8634244175        2.9370432935        0.1567961532
 C         -4.5089226647        3.5095284395        0.5998118348
 H         -4.6831669473        4.3437741768        1.2819465335
 H         -3.9428743812        2.7542083086        1.1477595930
 C         -3.6681276205        4.0276424504       -0.5696977416
 H         -2.9260850325        4.7306746303       -0.1839230415
 H         -4.3193663898        4.5804525938       -1.2503652729
 C         -2.9113699969        2.9596207608       -1.3586301748
 H         -2.4560802661        3.4420634489       -2.2268665742
 H         -2.0952695964        2.5573774333       -0.7517788023
 C         -3.7586608264        1.7718801574       -1.8433857413
 H         -4.7535256572        2.0922375963       -2.1429302593
 H         -3.2568927459        1.3334265898       -2.7102545373
 H         -6.0438423072        3.2174379950       -0.8800426143
 H         -6.6608377590        3.3909205268        0.7476077144
 H         -6.3687597808        1.1821644476        1.3148125677
 H         -6.7650148932        1.0564276227       -0.3940618834
 O         -4.7380934647       -0.3916844423        1.0918619552
 C         -3.7054131517       -1.3087377252        1.1646367271
 O         -3.8000026434       -2.1179436886        2.1099286412
 O         -1.7949868179       -0.1838927722       -1.6955224639
 C         -1.5588348451       -2.2485299343        0.3146012462
 C         -0.2766601244       -1.4985059653        0.5837352794
 C         -0.1597500002       -0.8001982917        1.7834956491
 C          0.9791878673       -0.0738235134        2.0703679065
 C          2.0246621609       -0.0199382670        1.1640710684
 C          1.9207434315       -0.7149223903       -0.0321771026
 C          0.7782218619       -1.4564138920       -0.3122543176
 H          0.7109994226       -1.9866078585       -1.2491222605
 N          2.9663663190       -0.6475144911       -0.9648860567
 S          4.5486969796       -0.8279900642       -0.4484372512
 O          5.2806999779       -1.2533019525       -1.6214633883
 O          4.6338096010       -1.6906088943        0.7073463343
 C          5.0562636163        0.8233094167       -0.0158079288
 C          4.8707743016        1.8294670514       -0.9435493104
 C          5.2729099456        3.1164359132       -0.6239543144
 C          5.8541657464        3.3737240215        0.6088300177
 C          6.0372086520        2.3519814774        1.5278355719
 C          5.6357906642        1.0625794909        1.2148257073
 H          5.7518586406        0.2385319532        1.9007845758
 H          6.4891357960        2.5538408203        2.4857038406
 H          6.1656026588        4.3766867249        0.8547621725
 H          5.1312123024        3.9137947446       -1.3357045124
 H          4.4166966365        1.5899156717       -1.8906197135
 H          2.7917019615       -1.1511865517       -1.8217203695
 H          2.9134488038        0.5505327455        1.3785183043
 H          1.0544115226        0.4611234912        3.0050540092
 H         -0.9817325306       -0.8355725769        2.4862220186
 H         -1.7822352182       -2.8643964057        1.1971161604
 C         -1.5125804513       -3.1448592012       -0.9040814704
 C         -0.8110911255       -4.4668137552       -0.8280302310
 C         -2.3070114626       -4.4146168371       -0.9023322625
 H         -2.7893644622       -4.7220683522       -1.8180486201
 H         -2.8736021266       -4.6461467389       -0.0120893271
 H         -0.2666028978       -4.8151334815       -1.6928912135
 H         -0.3583615589       -4.7378181137        0.1139935332
 H         -1.4637377432       -2.5918679464       -1.8346145288
