  62
        -98.93968830
 C          2.1162090304        0.4033737820        0.2617891996
 C          2.8054021307       -0.8223600180        0.0723012302
 C          4.1611425907       -0.7338794480       -0.4834448899
 C          4.6618359804        0.4747681020       -0.7968733606
 C          6.0473896303        0.7217172420       -1.3176893508
 C          7.0341353503        0.9777934328       -0.1699431010
 C          6.9585118706       -0.0572151565        0.9525374596
 H          7.7183958706        0.2076108041        1.6909683994
 H          5.9879276906        0.0232605335        1.4475051796
 C          7.1736177409       -1.5067958667        0.4954336604
 H          7.8548945510       -1.9971068162        1.1940269907
 H          7.6508777708       -1.5194823872       -0.4850860096
 C          5.8996429711       -2.3525883971        0.4488587610
 H          6.1904345013       -3.3995655171        0.3277079716
 H          5.3687990811       -2.2696325166        1.4007685009
 C          4.9172321409       -2.0174596779       -0.6804841592
 H          5.4443546009       -2.0111823783       -1.6368094392
 H          4.1616011311       -2.8081134981       -0.7094504987
 H          6.8214504101        1.9608059230        0.2564989085
 H          8.0448849403        0.9972946628       -0.5814137210
 H          6.3683109705       -0.1384583683       -1.9020487203
 H          6.0206078801        1.6001999916       -1.9644652213
 O          3.9662276801        1.6253584119       -0.6272084312
 C          2.6805382502        1.6288409619       -0.0959982211
 O          2.1827814299        2.7653270119       -0.0079893118
 H         -1.3090021291       -1.4772058185        0.7315298708
 C         -1.3009088493       -0.8040505890       -0.1120573896
 C         -0.3234802295        0.1743285512       -0.2176228202
 C         -0.3384456898        1.0192718206       -1.3238983806
 C         -1.3062370598        0.8790932598       -2.3012674505
 C         -2.2891683996       -0.0890074404       -2.1846964899
 C         -2.2870419793       -0.9325322697       -1.0812331294
 N         -3.2824715891       -1.9177023899       -0.9139662288
 S         -4.3077054491       -1.7398233293        0.3995754911
 O         -3.5403628190       -1.7449972985        1.6170126111
 O         -5.3041601689       -2.7757704697        0.2530433118
 C         -5.0543465094       -0.1391534197        0.1460843402
 C         -4.3536981697        0.9893480607        0.5230449196
 C         -4.8964244600        2.2355748404        0.2529511589
 C         -6.1226652700        2.3311819998       -0.3871393611
 C         -6.8148182198        1.1881713594       -0.7583011904
 C         -6.2749949795       -0.0606403503       -0.4955822897
 H         -6.7790667893       -0.9753977206       -0.7630048292
 H         -7.7695792698        1.2662910689       -1.2529735104
 H         -6.5408193102        3.3031696396       -0.5961188816
 H         -4.3565427301        3.1230113307        0.5422947184
 H         -3.4057066596        0.8788832112        1.0231887896
 H         -3.8333229091       -2.0812485305       -1.7456787287
 H         -3.0485691996       -0.1942115010       -2.9449002898
 H         -1.3019468200        1.5372713893       -3.1567056309
 H          0.4136026601        1.7896451907       -1.4032459711
 C          0.7242147705        0.3091523820        0.8585990797
 H          0.7256923107       -0.6354022876        1.4262555402
 C          0.4061239103        1.4293262425        1.8410452691
 C         -0.6757485399        2.4375273921        1.6094343586
 C         -0.8596011597        1.3707097227        2.6445830192
 H         -0.8225473997        1.6483462933        3.6872960190
 H         -1.5446328295        0.5607824324        2.4353122497
 H         -1.2441868400        2.3726631415        0.6947837686
 H         -0.4916301901        3.4495221024        1.9358456380
 H          1.2922918102        1.7848712930        2.3557150088
 O          2.3059563110       -1.9428725579        0.3644347709
