  62
        -98.93875083
 C         -2.0021045683       -0.9716669020       -0.4268190671
 C         -3.0606021366       -1.2851279163        0.4605405008
 C         -4.3592620437       -0.6438473993        0.1946137863
 C         -4.4683215145        0.1967407495       -0.8487170369
 C         -5.6736474500        0.9971203156       -1.2580649926
 C         -5.6288180158        2.4030872788       -0.6357508904
 C         -6.2416401414        2.5098682323        0.7601267205
 H         -6.0289033519        3.5149165082        1.1316539763
 H         -7.3266793499        2.4120395174        0.6838407160
 C         -5.7288614526        1.4902098358        1.7804687857
 H         -4.6453042350        1.3924285114        1.6901900142
 H         -5.9350185510        1.8830163969        2.7780694929
 C         -6.3928282767        0.1121250685        1.6422651168
 H         -6.7700251964       -0.2060634692        2.6163533823
 H         -7.2607471825        0.1990916745        0.9887725857
 C         -5.4744745232       -1.0098353067        1.1357678609
 H         -6.0867283049       -1.7863876926        0.6652485160
 H         -4.9735913986       -1.4811854060        1.9871134255
 H         -4.5838268378        2.7227547021       -0.6047290084
 H         -6.1614930933        3.0942093689       -1.2922387219
 H         -6.5900735931        0.4784516634       -0.9927483695
 H         -5.6270216963        1.0965306756       -2.3445621666
 O         -3.4236487755        0.4774693995       -1.6740582143
 C         -2.1719044058       -0.0860415210       -1.4904889625
 O         -1.3271681881        0.2742289924       -2.3327585467
 O         -2.9249576746       -2.0683737390        1.4383412080
 C         -0.6459355771       -1.6068889018       -0.1676212934
 C          0.3031830371       -0.5440176685        0.3272730575
 C          0.3231217998       -0.2181117150        1.6802426970
 C          1.1674122357        0.7669998128        2.1585112889
 C          2.0092321579        1.4484767908        1.2971084844
 C          1.9897318954        1.1355211769       -0.0554666075
 C          1.1498901464        0.1386201372       -0.5327337343
 H          1.1331405523       -0.0824255775       -1.5881037736
 N          2.8556183785        1.8167798552       -0.9318242148
 S          4.4769897305        1.8126969525       -0.5119724121
 O          4.7276510847        2.8512832401        0.4561702140
 O          5.2023084347        1.9241509601       -1.7580865961
 C          4.7391966890        0.2134717366        0.2357818333
 C          4.5488652234       -0.9081117737       -0.5471493894
 C          4.6845644292       -2.1595969537        0.0303823241
 C          5.0036806353       -2.2677712983        1.3754277839
 C          5.1960803314       -1.1324869861        2.1467997127
 C          5.0595400306        0.1222869776        1.5746465963
 H          5.1950930306        1.0306269676        2.1385317334
 H          5.4456868961       -1.2200197959        3.1919149107
 H          5.1030686987       -3.2438630327        1.8234981688
 H          4.5352421075       -3.0443266978       -0.5676078629
 H          4.3057012373       -0.7894334395       -1.5908602288
 H          2.7288579671        1.5598685996       -1.8999735647
 H          2.6757071569        2.2199617831        1.6478371915
 H          1.1726746575        1.0064363666        3.2108748099
 H         -0.3401433911       -0.7442722537        2.3522150894
 H         -0.8142426970       -2.3168627497        0.6530057583
 C         -0.1213489578       -2.3656561978       -1.3694962837
 C          1.0722710420       -3.2568159243       -1.2016075166
 C         -0.2835060406       -3.8535831041       -1.4277353322
 H         -0.4947414356       -4.3106284150       -2.3830016302
 H         -0.7758257212       -4.3356893755       -0.5961010929
 H          1.7940200582       -3.3062708727       -2.0024689773
 H          1.5017878617       -3.3283018463       -0.2138929940
 H         -0.2209534463       -1.8216050591       -2.3006904749
