  62
        -98.94496644
 C         -2.1733875371       -0.8683706559       -0.0695105202
 C         -3.0063114742       -0.5098403444        1.0232148657
 C         -3.7593468997        0.7425950157        0.8887298958
 C         -3.5989024190        1.4870327372       -0.2202050920
 C         -4.3278656180        2.7665196308       -0.5090502477
 C         -5.6293387191        2.5047597180       -1.2799546641
 C         -6.5013748806        1.4102472962       -0.6647190966
 H         -7.4048573035        1.3343686264       -1.2734959067
 H         -5.9795003444        0.4538054569       -0.7429057935
 C         -6.8901577860        1.6566279313        0.7997135798
 H         -7.9533032251        1.4388516066        0.9208382650
 H         -6.7443612711        2.7080548656        1.0498040842
 C         -6.1394937261        0.7869346059        1.8098936444
 H         -6.6394634964        0.8814805178        2.7773916968
 H         -6.2037316132       -0.2617003240        1.5091653939
 C         -4.6615108493        1.1370944322        2.0242284655
 H         -4.5629490715        2.2028927858        2.2404445151
 H         -4.3089950087        0.5761292334        2.8945935400
 H         -6.1934884626        3.4377977053       -1.3303102259
 H         -5.3733271900        2.2069273941       -2.2994170171
 H         -3.6779816975        3.4024338342       -1.1128888015
 H         -4.5442383187        3.2735754440        0.4293595084
 O         -2.7764102939        1.1263506399       -1.2362159631
 C         -2.0470163758       -0.0532560931       -1.1943461090
 O         -1.3518791995       -0.2402131978       -2.2136260071
 O         -3.1155993175       -1.2114593170        2.0635700576
 C         -1.3741584578       -2.1557848536        0.0683415219
 C          0.0493021773       -1.8011527548        0.4246244426
 C          0.4751325516       -1.8541630930        1.7476490288
 C          1.7552775659       -1.4597631015        2.0932784230
 C          2.6324918805       -0.9934980829        1.1300979682
 C          2.2111902910       -0.9233610277       -0.1908603905
 C          0.9362208403       -1.3430770191       -0.5392882417
 H          0.6117177070       -1.2611401753       -1.5654210667
 N          3.0872534079       -0.4136440621       -1.1719584764
 S          3.6280314732        1.1599037804       -0.9149979155
 O          2.6822547569        1.9267129298       -0.1354668409
 O          3.9523746345        1.6763403776       -2.2271797285
 C          5.1374845381        0.9375870260        0.0044954185
 C          5.2866441550        1.5366416982        1.2399058111
 C          6.4726058294        1.3538240010        1.9342708920
 C          7.4825688275        0.5799247314        1.3835147498
 C          7.3178389134       -0.0129669600        0.1403678452
 C          6.1354730882        0.1668203550       -0.5594857935
 H          5.9672507997       -0.2718130375       -1.5287605619
 H          8.1055626334       -0.6138913201       -0.2845909737
 H          8.4035855432        0.4383564119        1.9265767559
 H          6.6021648164        1.8143848243        2.9004828600
 H          4.4705852153        2.1238938366        1.6300427936
 H          2.7046033378       -0.4850549040       -2.1052254334
 H          3.6275552403       -0.6731706532        1.3928819928
 H          2.0717327021       -1.5094531108        3.1239723565
 H         -0.2171316566       -2.1874075558        2.5074803523
 H         -1.8157323196       -2.6756784593        0.9289031068
 C         -1.4736134207       -3.0598443094       -1.1426961109
 C         -1.0834717073       -4.5002000745       -1.0051490661
 C         -2.5248436387       -4.1269872381       -1.1735927547
 H         -3.0096941611       -4.3438370110       -2.1136636939
 H         -3.1775161434       -4.2110809393       -0.3169502608
 H         -0.5755858652       -4.9771055575       -1.8291924651
 H         -0.7579854997       -4.8366914063       -0.0325223294
 H         -1.2501934275       -2.5627967556       -2.0776517404
