  62
        -98.94419761
 C         -1.8926488741       -1.3487675456        0.5927592556
 C         -2.6555405408       -0.8064074839       -0.4710900347
 C         -3.2947633193        0.4886705396       -0.1985497706
 C         -3.1086628275        1.0980234076        0.9854122250
 C         -3.6806280638        2.4257163868        1.4011293004
 C         -2.8584944378        3.6278454727        0.9162100463
 C         -2.9702968771        3.9309046368       -0.5787912021
 H         -4.0228810395        3.9921011656       -0.8570125063
 H         -2.5365493157        4.9201387227       -0.7389963566
 C         -2.2529384596        2.9230638135       -1.4882909159
 H         -1.6818853593        3.4615906539       -2.2474867827
 H         -1.5392053230        2.3410506833       -0.9007777633
 C         -3.1815280224        1.9588760685       -2.2257546442
 H         -3.8153653018        2.5148808497       -2.9202285180
 H         -2.5649346293        1.2698524812       -2.8082354606
 C         -4.0812103498        1.1242920656       -1.3055303125
 H         -4.8801261744        1.7425473472       -0.8967907709
 H         -4.5277421766        0.3227696492       -1.8989888448
 H         -3.2049001410        4.5038945290        1.4693416510
 H         -1.8119103674        3.4583099138        1.1784672850
 H         -4.7067326862        2.5138862575        1.0434583048
 H         -3.6917778410        2.4322815746        2.4931393470
 O         -2.3539820978        0.5517421834        1.9761088976
 C         -1.7182552427       -0.6628115522        1.7979319181
 O         -1.0335608409       -1.0279520587        2.7765491143
 O         -2.8100450544       -1.3547704694       -1.5921914856
 C         -1.1246185264       -2.6567660036        0.4608323476
 C          0.1548077445       -2.3387384956       -0.2749777170
 C          0.2532100963       -2.3540119584       -1.6610691616
 C          1.4319199809       -1.9750303488       -2.2799394521
 C          2.5304141704       -1.5770527330       -1.5381814331
 C          2.4377723760       -1.5501336304       -0.1523646257
 C          1.2560654928       -1.9304590137        0.4669405819
 H          1.1762017881       -1.8917586884        1.5455014472
 N          3.5449648186       -1.1576330148        0.6235493775
 S          4.3369942725        0.2673299687        0.2554246082
 O          5.0518137343        0.1077446805       -0.9855718605
 O          5.1384150168        0.5623926785        1.4209249898
 C          3.0612781819        1.4987545620        0.0664720963
 C          2.5266913441        2.0643685859        1.2070012774
 C          1.5310519155        3.0189947499        1.0794291196
 C          1.0842144047        3.3847060923       -0.1811231958
 C          1.6217933929        2.7974177434       -1.3159938626
 C          2.6206148606        1.8447749617       -1.1948786813
 H          3.0733893921        1.3769189068       -2.0533222996
 H          1.2670414458        3.0803340659       -2.2939108179
 H          0.3150554637        4.1344186417       -0.2798701024
 H          1.1092502884        3.4732843301        1.9621401103
 H          2.9091285572        1.7651336253        2.1698989635
 H          3.3724071316       -1.2101732353        1.6171953350
 H          3.4550749726       -1.2855994496       -2.0093163942
 H          1.4974765542       -1.9906923868       -3.3573488905
 H         -0.6034913622       -2.6379918118       -2.2502942418
 H         -0.8554364906       -2.9506356440        1.4843588147
 C         -1.9266851871       -3.7776021660       -0.1630987327
 C         -1.4128496221       -5.1804129136       -0.0490723817
 C         -2.6230206617       -4.7598327034        0.7281315568
 H         -3.5885755167       -5.1355943601        0.4245497139
 H         -2.5234460951       -4.6282432633        1.7960726657
 H         -1.5451037774       -5.8478585537       -0.8866265982
 H         -0.4903295512       -5.3315831731        0.4914687554
 H         -2.4335972715       -3.4970745675       -1.0760895854
