  62
        -98.93873111
 C         -1.4137091273       -1.0779483767       -0.4861119440
 C         -2.7558719381       -1.4675248846       -0.2777755376
 C         -3.7749561350       -0.4100592657       -0.3981918971
 C         -3.3901518802        0.8492194862       -0.6790550647
 C         -4.1986730519        2.1110160630       -0.8986906082
 C         -5.6628892192        2.1860801425       -0.4736471614
 C         -5.8951681290        2.1284378914        1.0356515339
 H         -5.5113546163        3.0491442088        1.4821903958
 H         -6.9722946720        2.0967338993        1.2139406242
 C         -5.2373464811        0.9564425372        1.7599385825
 H         -5.4886854374        1.0363235262        2.8211143172
 H         -4.1513367906        1.0380084745        1.6803730063
 C         -5.6666432477       -0.4305586829        1.2850857542
 H         -5.2533404831       -1.1603761073        1.9866130734
 H         -6.7547140984       -0.5120394174        1.3219685558
 C         -5.1915925953       -0.8257476058       -0.1244079098
 H         -5.2098423445       -1.9174542983       -0.1923385848
 H         -5.8603173328       -0.4409544606       -0.8906889443
 H         -6.2422845933        1.4177038551       -0.9768993841
 H         -6.0403659370        3.1491022006       -0.8282896275
 H         -3.6407739485        2.9099733617       -0.4005304803
 H         -4.1403718540        2.3177720994       -1.9730313458
 O         -2.0786402561        1.1767047536       -0.8702612535
 C         -1.0616334241        0.2402568782       -0.7708800853
 O          0.0785765712        0.7003557935       -0.9551658982
 H          2.3572268972       -1.3488228413       -0.4110210265
 C          1.9199317109       -1.3357714695        0.5724173464
 C          0.6013952788       -1.7119198076        0.7691512726
 C          0.0828997936       -1.6840014112        2.0624165425
 C          0.8649632889       -1.2892568833        3.1294846517
 C          2.1787718872       -0.9016896878        2.9280652980
 C          2.7047335094       -0.9255839180        1.6424928285
 N          4.0375708906       -0.5552955766        1.4143479174
 S          4.4932717609        0.2402762587        0.0212287822
 O          4.5131612474       -0.6736153487       -1.0938108147
 O          5.7739244175        0.8273266867        0.3626478511
 C          3.3144344729        1.5479127313       -0.2627803817
 C          2.8611058158        2.2936580264        0.8059044725
 C          1.9914596766        3.3442416925        0.5668708009
 C          1.6006288626        3.6375807406       -0.7294970097
 C          2.0699730699        2.8835757564       -1.7915793473
 C          2.9331696835        1.8267343956       -1.5576420986
 H          3.3070392248        1.2040218789       -2.3548773974
 H          1.7559708925        3.1057360081       -2.7989995169
 H          0.9173832393        4.4522452275       -0.9125930751
 H          1.6161575519        3.9274024572        1.3930639426
 H          3.1785248601        2.0496840440        1.8069832502
 H          4.5316179522       -0.2046853431        2.2215377888
 H          2.7927622178       -0.5883266317        3.7587463017
 H          0.4498374085       -1.2760044048        4.1259408630
 H         -0.9474451998       -1.9751915101        2.2151686195
 C         -0.3120372969       -2.1153788713       -0.3605911410
 H         -0.8177984919       -3.0504205194       -0.0802078535
 C          0.3978725937       -2.3213748852       -1.6807059971
 C          1.1664514575       -3.5847413495       -1.9226075823
 C         -0.1249538370       -3.3428561401       -2.6435690926
 H         -0.0936712354       -3.1194883051       -3.6994766953
 H         -0.9927466152       -3.9119095509       -2.3433798356
 H          2.0901615358       -3.5264862312       -2.4785010431
 H          1.1761825246       -4.3206142584       -1.1326832569
 H          0.7907810685       -1.4009716087       -2.0981193055
 O         -3.0942475652       -2.6510770397       -0.0047433995
