  62
        -98.94654010
 C         -1.0983490835       -1.8003693522       -0.2234041841
 C         -1.2357472289       -0.6145802201       -0.9885878979
 C         -2.5587501841        0.0302019938       -0.9428578032
 C         -3.5417857939       -0.5147935892       -0.2058705384
 C         -4.9184713206        0.0601298599       -0.0419380834
 C         -4.9967312865        0.9907699628        1.1755881236
 C         -3.8824366517        2.0363067091        1.2305714939
 H         -4.0668903791        2.6635855580        2.1058349076
 H         -2.9225269754        1.5399732993        1.3944847756
 C         -3.7778126221        2.9216484954       -0.0186643601
 H         -3.6444549149        3.9578511899        0.2996637842
 H         -4.7063466850        2.8727342046       -0.5898034555
 C         -2.5963570298        2.5822638097       -0.9296117471
 H         -2.4692218019        3.4048556460       -1.6399351046
 H         -1.6865892452        2.5222960963       -0.3257171150
 C         -2.7350940725        1.2891952971       -1.7441509013
 H         -3.6962795468        1.2843660640       -2.2634422945
 H         -1.9380993967        1.2797882798       -2.4935966264
 H         -4.9395264753        0.3828675136        2.0815424405
 H         -5.9661518665        1.4927874919        1.1638750775
 H         -5.1886799256        0.6039944409       -0.9450846659
 H         -5.6192665231       -0.7649179845        0.0982206573
 O         -3.3770255063       -1.6548622881        0.5127518202
 C         -2.1583649588       -2.3110235203        0.5304811445
 O         -2.1450438579       -3.3394135158        1.2387835393
 H          0.6733850764        0.0018797100        0.5076155647
 C          1.2749801291       -0.6788596846        1.0858666193
 C          1.1359108775       -2.0461830452        0.9092484254
 C          1.9135112591       -2.9010915534        1.6831185066
 C          2.8082482825       -2.3934272891        2.6075123120
 C          2.9528181338       -1.0275266498        2.7732699035
 C          2.1751965886       -0.1646321934        2.0084531135
 N          2.2882902283        1.2198382529        2.1568359185
 S          1.6857410774        2.3045537709        1.0492990092
 O          2.3273258923        3.5539758448        1.4098084348
 O          0.2447137369        2.3163971864        1.0979628198
 C          2.2642487437        1.8056498966       -0.5629278498
 C          1.5191521578        2.1822493082       -1.6606754635
 C          1.9648292007        1.8374718135       -2.9260263238
 C          3.1410566561        1.1206795586       -3.0712278388
 C          3.8825897210        0.7552452921       -1.9587029132
 C          3.4462795844        1.1042876101       -0.6910930154
 H          4.0075049278        0.8244769044        0.1855455100
 H          4.7964056211        0.1942962040       -2.0729895329
 H          3.4794108377        0.8414600597       -4.0568780985
 H          1.3839919017        2.1177323613       -3.7899693167
 H          0.5975501527        2.7198662189       -1.5073246708
 H          3.0704736722        1.5646994190        2.6901872511
 H          3.6514063411       -0.6295520424        3.4928784865
 H          3.4027080080       -3.0672746356        3.2052813223
 H          1.8037745453       -3.9685144322        1.5657826205
 C          0.1925692663       -2.5959062604       -0.1354063227
 H         -0.1001595941       -3.6078434290        0.1780535866
 C          0.9282343192       -2.6961973982       -1.4602777694
 C          1.7855129323       -3.8908375244       -1.7443381597
 C          0.4880698797       -3.7088814423       -2.4722707994
 H          0.5087829464       -3.4346499606       -3.5159927300
 H         -0.3402097981       -4.3503387279       -2.2069456045
 H          1.8366200831       -4.6665828508       -0.9957911301
 H          2.7050504355       -3.7432585258       -2.2890280734
 H          1.2613224257       -1.7351379431       -1.8306136357
 O         -0.3213802166       -0.1035865178       -1.6862523105
