  62
        -98.94504666
 C         -0.6993288081       -1.6242582513       -1.1089846527
 C         -1.9822200191       -1.8634402956       -0.5546814782
 C         -2.9752557157       -0.7983092675       -0.7200311601
 C         -2.6327879819        0.3340314555       -1.3591105753
 C         -3.5164648930        1.5317505360       -1.5787662987
 C         -3.5671822917        2.4802406685       -0.3727972492
 C         -4.4025308492        1.9832332965        0.8077913608
 H         -4.5625265344        2.8381232998        1.4681454015
 H         -5.3808756266        1.6567719034        0.4522327518
 C         -3.7407754024        0.8589006050        1.6171344072
 H         -2.6679827620        0.8399082075        1.4078516508
 H         -3.8457040231        1.0718526284        2.6841961566
 C         -4.3289313655       -0.5320230960        1.3769525169
 H         -5.3583909931       -0.5614784311        1.7430026257
 H         -3.7437885068       -1.2519337478        1.9551464252
 C         -4.3214388084       -0.9849140519       -0.0881841735
 H         -4.5547254766       -2.0525817058       -0.1150848156
 H         -5.0829336742       -0.4458545300       -0.6519212407
 H         -3.9866797602        3.4288816736       -0.7169537551
 H         -2.5467814138        2.6683439967       -0.0277512073
 H         -4.5264396690        1.2069086678       -1.8310810411
 H         -3.1023010026        2.0747580065       -2.4311872346
 O         -1.4066127947        0.5153685760       -1.9093429114
 C         -0.3990363188       -0.4355993272       -1.7759254747
 O          0.6736565308       -0.0948176342       -2.3059083118
 O         -2.2831454983       -2.9283746684        0.0512514422
 C          0.3657780404       -2.6692209000       -0.8214720953
 C          0.9857835858       -2.3547477961        0.5178211606
 C          1.1534635749       -3.3253241345        1.4976643981
 C          1.6559255916       -2.9846610801        2.7421298023
 C          1.9667767669       -1.6705748414        3.0436411782
 C          1.8028262015       -0.6934708945        2.0680479042
 C          1.3511655799       -1.0479410477        0.8076546866
 H          1.2427060024       -0.2847016350        0.0543364376
 N          2.0825354937        0.6573008213        2.3190013410
 S          1.1254156739        1.8301070628        1.5941749232
 O          1.2838801167        2.9922449379        2.4472141654
 O         -0.2338554550        1.3776645560        1.4088125511
 C          1.9066400353        2.1736860080        0.0342326598
 C          3.2702506736        2.0045588356       -0.0968137724
 C          3.8687709470        2.3241437636       -1.3042697405
 C          3.1006923867        2.8116338724       -2.3502606634
 C          1.7344332817        2.9818566588       -2.1997443800
 C          1.1294180381        2.6606554646       -0.9960333878
 H          0.0650126029        2.7577715523       -0.8482747960
 H          1.1333868052        3.3493950787       -3.0158344881
 H          3.5678022713        3.0545570538       -3.2917388699
 H          4.9311346337        2.1869139838       -1.4277227857
 H          3.8357667358        1.6161915267        0.7341418342
 H          2.3015534310        0.8861828004        3.2775413488
 H          2.3225622810       -1.3997204222        4.0259503569
 H          1.7821424058       -3.7469100994        3.4959782496
 H          0.8647527918       -4.3450335984        1.2892929315
 H         -0.1809739513       -3.6201808126       -0.7172016115
 C          1.3882641589       -2.8457189322       -1.9322160617
 C          2.7956407697       -2.3463679592       -1.8374048590
 C          2.5194897328       -3.8161922236       -1.7591680167
 H          2.7953680678       -4.4418609501       -2.5942977872
 H          2.6224777312       -4.2922161519       -0.7957294123
 H          3.2423463735       -1.9435330261       -2.7329548822
 H          3.0923156152       -1.8318664254       -0.9369537119
 H          0.9284446512       -2.8008684804       -2.9138107064
