  62
        -98.93193028
 C          1.1584694661        1.0283323321       -0.5215591474
 C          2.3229746109        1.3121460501        0.2459161901
 C          3.1226011008        0.1759335608        0.7285515393
 C          2.7143814170       -1.0733068581        0.4534253235
 C          3.3219376361       -2.3875247499        0.8773037271
 C          4.8507127707       -2.5055719826        0.8524023857
 C          5.5373052364       -1.7402662490       -0.2883366150
 H          6.2085348051       -2.4188024214       -0.8178576070
 H          4.7918412034       -1.3924327390       -1.0054065537
 C          6.3637053359       -0.5498983556        0.2035350811
 H          6.9217078693       -0.8534922952        1.0919515020
 H          7.0927213958       -0.2862577801       -0.5664310337
 C          5.5653751189        0.7135836530        0.5221849612
 H          5.1786567340        1.1509934562       -0.4021863903
 H          6.2510445751        1.4435740020        0.9590363883
 C          4.3767633335        0.5226872777        1.4788002130
 H          4.6015782966       -0.2140399904        2.2465628542
 H          4.1792836362        1.4811364047        1.9666579579
 H          5.2581752989       -2.1688378118        1.8045080533
 H          5.0825648888       -3.5689858837        0.7707344131
 H          2.9587341541       -2.6151071918        1.8844206403
 H          2.8872514411       -3.1315648246        0.2049422388
 O          1.5924187496       -1.3108183896       -0.2750747316
 C          0.7864947787       -0.2942856250       -0.7718748384
 O         -0.1905522224       -0.7357504997       -1.4046569607
 H         -1.4998176067        0.4240039607       -0.1206933533
 C         -1.7190956639        1.4214950752        0.2165906220
 C         -0.8814714939        2.4715989235       -0.1229425839
 C         -1.2119520467        3.7517866485        0.3126091808
 C         -2.3399318076        3.9661240462        1.0830511103
 C         -3.1478419726        2.9067480749        1.4576870162
 C         -2.8284174572        1.6260852902        1.0242629957
 N         -3.6178441907        0.5219374849        1.3737472446
 S         -2.9077295317       -0.9759221047        1.6125578867
 O         -3.8584862606       -1.6858294803        2.4477158768
 O         -1.5745852978       -0.8578832477        2.1607270318
 C         -2.8871603695       -1.7574996014        0.0153130531
 C         -3.7905069973       -1.3695612494       -0.9525966461
 C         -3.7875166576       -2.0300981298       -2.1702867248
 C         -2.8942041058       -3.0656037261       -2.3943630804
 C         -1.9975046508       -3.4457241321       -1.4093718758
 C         -1.9911195841       -2.7854872328       -0.1920137756
 H         -1.2930779960       -3.0341996682        0.5924223339
 H         -1.2935324214       -4.2429838126       -1.5876106292
 H         -2.8897865596       -3.5745247080       -3.3456004277
 H         -4.4770882682       -1.7299119276       -2.9431361672
 H         -4.4648815275       -0.5537769018       -0.7508865492
 H         -4.3536989914        0.7037597010        2.0403615073
 H         -4.0133464892        3.0670291946        2.0822415984
 H         -2.5831209009        4.9644048383        1.4138907735
 H         -0.5662910427        4.5790919904        0.0562509077
 C          0.3688680194        2.2552867247       -0.9473973853
 H          1.0525052191        3.0804674371       -0.6906439745
 C          0.0389279476        2.4531706805       -2.4255544266
 C          0.6472451806        1.6447313169       -3.5283361175
 C         -0.8201778700        1.5369331626       -3.2403038596
 H         -1.5155367727        1.9827083204       -3.9363571641
 H         -1.1649254739        0.6257733003       -2.7807115115
 H          0.9740651640        2.1539376793       -4.4231377579
 H          1.2677043237        0.8059689141       -3.2485201565
 H         -0.0912481000        3.5104188626       -2.6408457177
 O          2.6847356163        2.4872792402        0.5292807498
