  62
        -98.95003668
 C         -1.9068512711       -1.0328515160        0.0236551106
 C         -1.3364341973       -1.8156346668       -1.0103044723
 C         -0.2689832438       -2.7370986472       -0.6029176895
 C          0.0754139221       -2.8294405668        0.6944955966
 C          1.0992494696       -3.7656545323        1.2778359744
 C          2.5452257066       -3.2570298763        1.2040281800
 C          3.1660369430       -3.2714430673       -0.1928543575
 H          3.0381035738       -4.2576030191       -0.6404646442
 H          4.2378816526       -3.1038859293       -0.0719157520
 C          2.6050706288       -2.1991471446       -1.1361072683
 H          3.4234801364       -1.6932257608       -1.6544005241
 H          2.0894741370       -1.4304866998       -0.5563646592
 C          1.6508092900       -2.7185382265       -2.2116000232
 H          2.1958718540       -3.3570820346       -2.9111636698
 H          1.2780811473       -1.8515333701       -2.7646998738
 C          0.4467778051       -3.5030681042       -1.6731145305
 H          0.7694748700       -4.4748400556       -1.2984115920
 H         -0.2549004101       -3.6596605658       -2.4964741715
 H          3.1475041528       -3.8967611546        1.8529159983
 H          2.5842021304       -2.2411435477        1.6033603057
 H          1.0291656751       -4.7337690064        0.7807568994
 H          0.8340538299       -3.8954453020        2.3292907456
 O         -0.5179706967       -2.0817989925        1.6618583526
 C         -1.4852454421       -1.1341941776        1.3492124416
 O         -1.8812295348       -0.4727191568        2.3267517909
 O         -1.7105997550       -1.7537977544       -2.2124041133
 C         -2.9565596155        0.0064757192       -0.3351380956
 C         -2.3729857132        1.3755221732       -0.0806370440
 C         -2.9132763427        2.3001416526        0.8025956902
 C         -2.2744907991        3.5087436102        1.0220846122
 C         -1.0856548297        3.8112171931        0.3841945908
 C         -0.5409879197        2.8969354233       -0.5121044507
 C         -1.2000908736        1.7018669656       -0.7524825973
 H         -0.7816727678        1.0009124563       -1.4607141632
 N          0.6593987245        3.1824012307       -1.1854020041
 S          1.8671011739        2.0410178426       -1.3595424076
 O          2.9734493148        2.7787858066       -1.9290479199
 O          1.3861930836        0.9212396053       -2.1242733960
 C          2.2941660223        1.5373219799        0.2976718107
 C          3.4472049137        2.0362489832        0.8719258978
 C          3.7637706947        1.6719255897        2.1706832624
 C          2.9189431246        0.8294407194        2.8776978750
 C          1.7612325320        0.3418200553        2.2909931795
 C          1.4473166915        0.6930229478        0.9873899200
 H          0.5539375463        0.3204769662        0.5099516029
 H          1.0888166953       -0.3053651935        2.8336472728
 H          3.1605770928        0.5483025018        3.8905903539
 H          4.6644765029        2.0473656524        2.6288880951
 H          4.0732938320        2.6885666396        0.2850131524
 H          1.0597745597        4.0807164093       -0.9561545312
 H         -0.5815744821        4.7469587955        0.5722933309
 H         -2.7018749740        4.2194026138        1.7129693999
 H         -3.8261248514        2.0715455388        1.3267861613
 H         -3.1140769681       -0.1018197398       -1.4183985410
 C         -4.2643206064       -0.2533212807        0.3792780321
 C         -5.5430508603        0.2845600658       -0.1876842158
 C         -5.2588312073       -1.1856173428       -0.2422767021
 H         -5.8192811819       -1.8454781651        0.4027889575
 H         -5.0016107251       -1.6236411267       -1.1958558468
 H         -6.3036454943        0.6338629402        0.4938874895
 H         -5.4833741644        0.8462462082       -1.1077208280
 H         -4.1555471164       -0.2884746187        1.4569030171
