  62
        -98.94472081
 C          2.0742938756        0.4096839492       -0.1575978088
 C          3.0699539577        0.8230957552        0.7639342556
 C          4.2391723776       -0.0533001465        0.8862755562
 C          4.2932943848       -1.1947862091        0.1763384925
 C          5.4005419134       -2.2126958246        0.2189365936
 C          6.5909145570       -1.8803985297       -0.6912208878
 C          7.4771034713       -0.7309610163       -0.2096477029
 H          7.7745156733       -0.9117483551        0.8237720009
 H          8.3839538672       -0.7497735567       -0.8174290405
 C          6.8327659006        0.6573448167       -0.3273186551
 H          5.9791989914        0.6059951859       -1.0071337207
 H          7.5494623782        1.3552101529       -0.7660591763
 C          6.3717228400        1.2571814268        1.0010506756
 H          7.2375382925        1.4359210613        1.6424238036
 H          5.8998475500        2.2213783064        0.7958207719
 C          5.3653953738        0.3910611207        1.7700497424
 H          5.8682888611       -0.4709181046        2.2080024923
 H          4.9381527338        0.9938070476        2.5751228145
 H          6.2135801237       -1.6557046165       -1.6915448019
 H          7.2065203430       -2.7800533984       -0.7630507918
 H          5.7481714567       -2.3329924138        1.2454392071
 H          4.9659423042       -3.1578990643       -0.1137333811
 O          3.3031058820       -1.5736231641       -0.6732440881
 C          2.1816297341       -0.7805159163       -0.8771917404
 O          1.3821133384       -1.2477586438       -1.7110264356
 H         -1.0206949354       -0.3454033384       -1.4889169032
 C         -1.1829722267       -0.2219115527       -0.4300879877
 C         -0.3307075612        0.5843140271        0.3089638072
 C         -0.5477515242        0.7047296467        1.6788530677
 C         -1.5828616007        0.0248322952        2.2931625954
 C         -2.4208445128       -0.7935400111        1.5560895284
 C         -2.2117655611       -0.9205440657        0.1890648045
 N         -3.0488205713       -1.7567021295       -0.5649676964
 S         -4.6928738943       -1.7298834024       -0.2766988276
 O         -4.9994507334       -2.5272819980        0.8853684707
 O         -5.3027448082       -2.1608001826       -1.5150994820
 C         -5.0835531164       -0.0193171899        0.0482978520
 C         -5.6130784089        0.3478160702        1.2684534198
 C         -5.8846099925        1.6857928304        1.5064264083
 C         -5.6201272678        2.6286796260        0.5256300769
 C         -5.0907311395        2.2436818287       -0.6968370465
 C         -4.8182174019        0.9076002250       -0.9403632953
 H         -4.4116753533        0.5747676205       -1.8818157333
 H         -4.8871973115        2.9788843586       -1.4587154226
 H         -5.8282337046        3.6702297621        0.7132291036
 H         -6.2979690053        1.9876332236        2.4552786869
 H         -5.8022522561       -0.4178969946        2.0030972248
 H         -2.8306276420       -1.7840629816       -1.5492831314
 H         -3.2186686490       -1.3494695697        2.0211458804
 H         -1.7371192348        0.1268979227        3.3565398151
 H          0.1179565276        1.3280644331        2.2589744463
 C          0.8459322795        1.2915508115       -0.3165160231
 H          1.0581868730        2.1882017728        0.2810168739
 C          0.6161159101        1.7093805331       -1.7537541463
 C         -0.3198954501        2.8432526028       -2.0441328058
 C          1.1563108055        3.0239998740       -2.2276078406
 H          1.5495030963        3.0867680003       -3.2313630949
 H          1.6903088781        3.6322405505       -1.5123350797
 H         -0.9426453921        2.7858844274       -2.9236386283
 H         -0.7880001958        3.3282871723       -1.2011983052
 H          0.6479957261        0.8842218148       -2.4543496830
 O          2.9835737236        1.8748012035        1.4513851736
