  62
        -98.94383236
 C          1.5067354496        1.5778945337       -0.1526171808
 C          1.3854749987        0.2683203326        0.3765741103
 C          2.6480060324       -0.3692727238        0.7816085188
 C          3.8021501325        0.3168764338        0.7172919167
 C          5.1594426589       -0.1885899348        1.1254391904
 C          5.8771310621       -0.9995517783        0.0378713990
 C          5.3035893091       -2.3939305260       -0.2170305848
 H          6.0243008833       -2.9275956306       -0.8399115960
 H          5.2288558501       -2.9323476824        0.7281997614
 C          3.9410674396       -2.3972688276       -0.9240707633
 H          3.7681099687       -1.4218495617       -1.3847180537
 H          3.9528999996       -3.1328174875       -1.7315838242
 C          2.7558762290       -2.7359744560       -0.0195624636
 H          2.8528708272       -3.7636507114        0.3369787715
 H          1.8424757283       -2.6661506670       -0.6146532311
 C          2.5974183186       -1.8094480814        1.1929658582
 H          1.6155265387       -1.9894492135        1.6371792224
 H          3.3665389783       -2.0224614112        1.9348640792
 H          5.8660105442       -0.4250104328       -0.8914307153
 H          6.9193083457       -1.1088666722        0.3469579748
 H          5.7635908152        0.6923941293        1.3530800185
 H          5.0694088581       -0.7910183315        2.0297860933
 O          3.8625242276        1.6046582725        0.2823021694
 C          2.7293467532        2.2534250853       -0.1813016762
 O          2.9349231357        3.4204375742       -0.5725613151
 H         -2.1497426792        1.0835502208       -0.9645849850
 C         -2.0146219070        1.5334080580        0.0040047539
 C         -0.8434434810        2.2054569670        0.3132683378
 C         -0.7075818525        2.7652180778        1.5812046081
 C         -1.7165919518        2.6475996144        2.5168230869
 C         -2.8800510368        1.9640917846        2.2097748660
 C         -3.0252121620        1.4036826076        0.9464952018
 N         -4.1992696287        0.7197564031        0.6052924319
 S         -4.2002197716       -0.5350350650       -0.4910574877
 O         -4.0425765127       -0.0256253932       -1.8313508663
 O         -5.4519630380       -1.2181254825       -0.2313716385
 C         -2.8520988299       -1.6253942092       -0.0762393191
 C         -2.6631555485       -1.9883044321        1.2410698584
 C         -1.6609947844       -2.8924808107        1.5483382542
 C         -0.8754456407       -3.4239614449        0.5388046691
 C         -1.0791455924       -3.0501717570       -0.7789343137
 C         -2.0746546403       -2.1401450424       -1.0912752911
 H         -2.2578768701       -1.8142188502       -2.1028884347
 H         -0.4636213653       -3.4596514408       -1.5650477930
 H         -0.0944617382       -4.1280709428        0.7806122135
 H         -1.4918726634       -3.1765748129        2.5749395175
 H         -3.2896121890       -1.5645312165        2.0093731936
 H         -4.8472303637        0.5632877424        1.3624749419
 H         -3.6682796672        1.8648228325        2.9404607728
 H         -1.5958759462        3.0855972344        3.4962359794
 H          0.2081178551        3.2875561231        1.8246500165
 C          0.2978423041        2.3432576507       -0.6625947242
 H          0.6096985506        3.4008602167       -0.6715262869
 C         -0.0951446574        1.9929016614       -2.0899768081
 C          0.9396337192        1.6017622560       -3.1011995457
 C         -0.0529351753        0.5907225616       -2.6152387720
 H         -0.8400400422        0.2780704423       -3.2866579009
 H          0.2829998242       -0.1851790393       -1.9457524690
 H          0.8433799379        1.9800193681       -4.1078646089
 H          1.9622482355        1.5207138231       -2.7615414422
 H         -0.9059496161        2.6193456764       -2.4508411925
 O          0.2982513161       -0.3457813627        0.5123200142
