  62
        -98.93585641
 C          2.4952460596        1.0182221503        0.5997773687
 C          2.5497059196       -0.2697512795        1.1927415392
 C          3.7862576495       -1.0347784197        0.9889070994
 C          4.7935195295       -0.4766157900        0.2935031891
 C          6.0894529994       -1.1567072902       -0.0386597808
 C          6.0046327893       -1.8820909107       -1.3889440405
 C          4.7690810292       -2.7701295407       -1.5369342401
 H          3.8754517692       -2.1413959906       -1.5458544202
 H          4.8309914391       -3.2535753910       -2.5142788099
 C          4.6224051192       -3.8402835603       -0.4461390097
 H          4.3559935192       -4.7880831204       -0.9185251593
 H          5.5770763193       -3.9871965401        0.0601548803
 C          3.5401505794       -3.5425418998        0.5936557003
 H          2.6003114493       -3.3012581099        0.0895014703
 H          3.3714346194       -4.4502817796        1.1793786407
 C          3.8577051095       -2.4134366795        1.5822905799
 H          4.8345294495       -2.5871803494        2.0384942698
 H          3.0996539196       -2.4392155191        2.3708607899
 H          5.9838931992       -1.1327612510       -2.1834110808
 H          6.9054102392       -2.4856648108       -1.5135530104
 H          6.8717851095       -0.3979203503       -0.0921666812
 H          6.3348268395       -1.8635939899        0.7514718994
 O          4.7213166195        0.7706878998       -0.2312970114
 C          3.5715737596        1.5452717199       -0.1161017116
 O          3.6599680896        2.6492935897       -0.6817335820
 O          1.6037377696       -0.7549642492        1.8726868695
 C          1.2045043497        1.7953657504        0.7859562386
 C          0.2522321096        1.5394057000       -0.3549737813
 C          0.6572452394        1.6788526495       -1.6793067213
 C         -0.2304497207        1.4346203092       -2.7108813512
 C         -1.5304099707        1.0424522394       -2.4445376609
 C         -1.9470339005        0.9042095799       -1.1253497908
 C         -1.0544342704        1.1548633502       -0.0916310910
 H         -1.3832816903        1.0240052206        0.9284019091
 N         -3.2751222605        0.5500704901       -0.8338453006
 S         -3.5941623105       -0.4251584294        0.5081417398
 O         -3.5262188103        0.3882038510        1.6958516495
 O         -2.7578428205       -1.6036256795        0.4783556702
 C         -5.2912921405       -0.8604738695        0.1775079901
 C         -5.5865810006       -2.1067109096       -0.3412559194
 C         -6.9080434707       -2.4226107397       -0.6161062491
 C         -7.9054740106       -1.4908643095       -0.3715659294
 C         -7.5935562505       -0.2439344293        0.1500820001
 C         -6.2748445204        0.0777009407        0.4287819699
 H         -5.9861714504        1.0292993008        0.8434980995
 H         -8.3721985904        0.4766648208        0.3413600999
 H         -8.9328311506       -1.7391768095       -0.5862272192
 H         -7.1536798208       -3.3923328298       -1.0181232288
 H         -4.7784186107       -2.8009906597       -0.5069835392
 H         -3.7738211006        0.2178379198       -1.6486068604
 H         -2.2192092407        0.8467818091       -3.2523455008
 H          0.0956761393        1.5450683488       -3.7342160012
 H          1.6719135694        1.9829697394       -1.8878544715
 H          0.7470089697        1.3636619508        1.6915432188
 C          1.4206529998        3.2785277905        1.0543788980
 C          1.0404737698        4.3599587301        0.0926672176
 C          0.2416304399        4.1604245907        1.3432637178
 H          0.3220641600        4.8893032809        2.1354025775
 H         -0.7395315402        3.7185713207        1.2470347580
 H          1.6947503798        5.2152446201        0.0226173573
 H          0.5962003497        4.0747300698       -0.8474950822
 H          2.3153105999        3.4544047706        1.6431966279
