  62
        -98.94088440
 C         -2.5865497903       -0.2069889134        0.6137832553
 C         -2.4625753752        0.4206937186       -0.6513175413
 C         -2.2417809629        1.8721363506       -0.6274512305
 C         -2.1158980741        2.5143262041        0.5465379464
 C         -1.8487016925        3.9832339204        0.7300170408
 C         -0.3650862975        4.3556158504        0.5977494904
 C          0.1847414406        4.3573961667       -0.8296505041
 H         -0.4804740939        4.9319385347       -1.4755918229
 H          1.1427306950        4.8803127307       -0.7986054407
 C          0.4105154152        2.9612166205       -1.4267760923
 H          1.3769271641        2.9409408473       -1.9370812070
 H          0.4632035784        2.2213272798       -0.6240104769
 C         -0.6394437662        2.5253007543       -2.4491653376
 H         -0.5663101399        3.1550648359       -3.3394797275
 H         -0.4216923228        1.4952134073       -2.7427954827
 C         -2.0855309196        2.5746624338       -1.9426191106
 H         -2.4208175024        3.6084435715       -1.8601513748
 H         -2.7167294186        2.0574062898       -2.6699333535
 H         -0.2432790281        5.3588086783        1.0136090033
 H          0.2230159154        3.6657324411        1.2086669400
 H         -2.4376838898        4.5589685122        0.0151536785
 H         -2.1802925043        4.2364329176        1.7393885343
 O         -2.2293293011        1.8765687722        1.7427085583
 C         -2.4322975535        0.5079911235        1.8030300705
 O         -2.4617519072        0.0484822118        2.9649944134
 O         -2.5279416571       -0.1848842052       -1.7517863369
 C         -2.6759615801       -1.7198240876        0.7407152266
 C         -1.5857144954       -2.3281220772       -0.1103593557
 C         -1.7726597516       -3.3622054819       -1.0157414335
 C         -0.7045911086       -3.8319501049       -1.7628585818
 C          0.5558223326       -3.2798302675       -1.6339793128
 C          0.7507973399       -2.2360870522       -0.7334307184
 C         -0.3104359767       -1.7946541284        0.0347803913
 H         -0.1516395249       -0.9979572816        0.7475017218
 N          1.9995040471       -1.6000275404       -0.6295607183
 S          2.3892219064       -0.6871220804        0.7285640415
 O          2.3036947409       -1.5031515856        1.9217327194
 O          1.6191503956        0.5306947960        0.7276089290
 C          4.0934362277       -0.3160340933        0.3624717740
 C          4.3707332615        0.7498305988       -0.4722432219
 C          5.6912194369        1.0297813413       -0.7856585763
 C          6.7067165448        0.2429480320       -0.2625053799
 C          6.4134208024       -0.8217736269        0.5762235146
 C          5.0945093402       -1.1075357522        0.8928678807
 H          4.8190208583       -1.9175081926        1.5490374401
 H          7.2052458976       -1.4285994679        0.9847894763
 H          7.7336413209        0.4635535544       -0.5072934622
 H          5.9229259099        1.8588982450       -1.4345354140
 H          3.5472210999        1.3368292928       -0.8451691431
 H          2.7730648029       -2.1702399096       -0.9407539811
 H          1.3791955525       -3.6369470675       -2.2331963433
 H         -0.8604970953       -4.6368509474       -2.4652452399
 H         -2.7536206154       -3.7867272449       -1.1530680324
 H         -2.4221551283       -1.9255403878        1.7952644980
 C         -4.0537417971       -2.3182152717        0.5052145408
 C         -5.2916157936       -1.4836991219        0.6423401971
 C         -4.8781388217       -1.9950284152       -0.7031748025
 H         -5.4621055732       -2.7874892054       -1.1483208847
 H         -4.4623184078       -1.2997698655       -1.4141427420
 H         -6.1547490049       -1.9213969975        1.1213930828
 H         -5.1611921584       -0.4314676659        0.8518705067
 H         -4.1205752660       -3.3347854153        0.8814880302
