  62
        -98.94703131
 C         -1.5171461517       -1.0714917873        0.0816499821
 C         -2.5303971396       -0.6134227674        0.9539573130
 C         -3.0999495005        0.7031668475        0.6422885477
 C         -2.6056871764        1.4040167895       -0.3952055234
 C         -3.1187233459        2.7401620199       -0.8469581303
 C         -4.2178797520        2.5872116931       -1.9077305234
 C         -5.3143119699        1.5948001423       -1.5204794635
 H         -6.0496607895        1.5912362886       -2.3277595918
 H         -4.8845844830        0.5918112796       -1.4708039489
 C         -6.0150667878        1.9109149326       -0.1918897516
 H         -5.8309075110        2.9492336611        0.0861726467
 H         -7.0925137615        1.7973841687       -0.3281038893
 C         -5.6149572906        0.9981291221        0.9686430578
 H         -5.7084281108       -0.0466118849        0.6619003068
 H         -6.3181778560        1.1629734483        1.7893063613
 C         -4.2027029608        1.2099299288        1.5293107027
 H         -4.0526345874        2.2660596245        1.7645644716
 H         -4.1247626192        0.6384422278        2.4592948238
 H         -4.6594238413        3.5686666007       -2.0896863802
 H         -3.7562438094        2.2440639531       -2.8363582956
 H         -3.5013210293        3.2853359912        0.0139821813
 H         -2.2829386569        3.2986054225       -1.2725698007
 O         -1.6045483555        0.9488970572       -1.1879438977
 C         -1.0247998745       -0.2875511611       -0.9629143478
 O         -0.1054001240       -0.5774172213       -1.7520603226
 H          0.3047287876       -0.5724806660        1.8355069483
 C          1.0397575682       -1.1848845270        1.3268033533
 C          0.6143566181       -2.2304176872        0.5157519048
 C          1.5765971660       -3.0029786201       -0.1213072398
 C          2.9225433567       -2.7075852158        0.0160144726
 C          3.3350370384       -1.6250444041        0.7714926297
 C          2.3805457952       -0.8642868498        1.4322738459
 N          2.8005553925        0.3078280420        2.1309047107
 S          2.5557870627        1.6668873236        1.1512793787
 O          3.0778433527        2.7899908254        1.9024504652
 O          1.1680874780        1.7881605170        0.7541281311
 C          3.6002152154        1.3143064851       -0.2407732869
 C          4.9408653336        1.6347914282       -0.1452829276
 C          5.7817935247        1.3160815217       -1.1987903083
 C          5.2697891239        0.6790917688       -2.3196525906
 C          3.9221620950        0.3632076301       -2.3970033560
 C          3.0721413372        0.6807034784       -1.3482206949
 H          2.0198269120        0.4392575106       -1.3799704974
 H          3.5197690552       -0.1355347288       -3.2640683233
 H          5.9242802091        0.4261479369       -3.1388766137
 H          6.8302025574        1.5607127545       -1.1419575276
 H          5.2881478223        2.1298265537        0.7466591179
 H          2.2813292882        0.4535012889        2.9877833009
 H          4.3757485154       -1.3575202662        0.8539160537
 H          3.6563998968       -3.3124968225       -0.4933197373
 H          1.2698308547       -3.8277884886       -0.7435007411
 C         -0.8707485223       -2.4220198782        0.3397173728
 H         -1.2977741307       -2.7777023979        1.2893933938
 C         -1.2301332530       -3.4010572015       -0.7581100751
 C         -1.2989809330       -4.8704338304       -0.4700027299
 C         -2.5581370021       -4.0928137925       -0.7040022287
 H         -3.0980192961       -4.2453962691       -1.6264302756
 H         -3.1939593684       -3.8766602895        0.1422840943
 H         -1.0839209137       -5.1929462535        0.5373979685
 H         -0.9770049154       -5.5612928704       -1.2343216366
 H         -0.8708765338       -3.0826701641       -1.7304263323
 O         -2.9327972609       -1.2726678334        1.9530392052
