  62
        -98.94482908
 C         -2.1891422401        0.9441960752       -0.5072747523
 C         -2.4065754086        0.2121863802        0.6854041802
 C         -3.1988583051       -1.0188784847        0.5445539307
 C         -3.6079055711       -1.4057468253       -0.6771906647
 C         -4.4598183074       -2.6091492385       -0.9567820821
 C         -5.9525058631       -2.2507001910       -0.9366285392
 C         -6.3790385135       -1.4488532973        0.2929612153
 H         -5.8964944763       -0.4692610374        0.2643939438
 H         -7.4549957489       -1.2800273907        0.2130281591
 C         -6.0663202090       -2.1279660129        1.6336728580
 H         -5.8853120022       -3.1919849171        1.4770829957
 H         -6.9397062597       -2.0397018550        2.2831135343
 C         -4.8848442110       -1.5203570675        2.3922471557
 H         -5.0168400241       -0.4383213821        2.4702124799
 H         -4.8881672931       -1.9247491776        3.4078629034
 C         -3.4978952459       -1.7941521630        1.7965989067
 H         -2.7498171552       -1.4766767830        2.5292888585
 H         -3.3741893542       -2.8657664686        1.6259312465
 H         -6.5292217505       -3.1758921867       -0.9887332212
 H         -6.1778935142       -1.6587138186       -1.8266620246
 H         -4.1999917757       -2.9924214054       -1.9451440161
 H         -4.2486068847       -3.3765883280       -0.2144543339
 O         -3.3216913826       -0.7104729201       -1.8081940628
 C         -2.6139587019        0.4793037302       -1.7513632848
 O         -2.4199867968        1.0149624073       -2.8626168197
 H          0.2569952161        0.5478972391       -1.6271338724
 C          0.7302602228        1.0155496318       -0.7715017044
 C          0.0127809513        1.9518985596       -0.0361195018
 C          0.6257448033        2.5450001795        1.0584399929
 C          1.9183474219        2.1938812762        1.4098329405
 C          2.6272566599        1.2600355616        0.6772245398
 C          2.0250372460        0.6650405273       -0.4243870923
 N          2.7431333726       -0.2707568297       -1.1913785715
 S          3.4797393450       -1.5477327997       -0.3861474996
 O          3.6132553126       -2.5915582214       -1.3796620012
 O          2.7688538813       -1.8987944111        0.8217308871
 C          5.0968316246       -0.9172646066        0.0116258469
 C          5.5611544167       -0.9815898846        1.3107322718
 C          6.8271726535       -0.4928863525        1.5944314963
 C          7.6017721612        0.0477232944        0.5796011939
 C          7.1214363465        0.1024955277       -0.7205211392
 C          5.8576651810       -0.3857022914       -1.0113411873
 H          5.4480758149       -0.3641585296       -2.0073543035
 H          7.7263168549        0.5242471052       -1.5069303498
 H          8.5856829835        0.4287005454        0.8031716110
 H          7.2020015214       -0.5348547309        2.6044571916
 H          4.9195996313       -1.4031908123        2.0681117009
 H          2.2295990366       -0.6108629765       -1.9919981882
 H          3.6317526206        0.9825164188        0.9518287289
 H          2.3804992218        2.6553153600        2.2690892655
 H          0.0882094068        3.2708156334        1.6454910199
 C         -1.4027901666        2.2444198158       -0.4730586370
 H         -1.3669188766        2.6026760336       -1.5121311704
 C         -2.1079945115        3.2793760097        0.3763909007
 C         -1.8548834720        4.7371322018        0.1400593418
 C         -3.1685133712        4.1314707259       -0.2508795418
 H         -4.0446366568        4.3753671098        0.3310279684
 H         -3.3717096718        3.9797443691       -1.3012909692
 H         -1.1656073406        5.0025924006       -0.6470952266
 H         -1.8308519905        5.4011722597        0.9906393327
 H         -2.2733961639        2.9448230512        1.3936059073
 O         -1.9685020801        0.5661173517        1.8103803595
