  62
        -98.93823254
 C          1.9007972993        0.1018351460        0.0039984362
 C          2.9329676140        0.9113047445        0.5328827336
 C          4.2455066002        0.2680693582        0.7061395063
 C          4.3930696467       -1.0258918616        0.3736401085
 C          5.6195266793       -1.8937825281        0.5073702945
 C          6.9682168216       -1.2836494796        0.1013083675
 C          6.9029533066       -0.2729331952       -1.0529855939
 H          7.6418695391       -0.5483655237       -1.8078519609
 H          5.9218166805       -0.3114900215       -1.5294034078
 C          7.1987164045        1.1614576820       -0.6081834343
 H          8.0467327087        1.1464630888        0.0799643037
 H          7.4976346038        1.7453640045       -1.4820931870
 C          6.0327657532        1.8976843167        0.0504610549
 H          6.4064594966        2.8551036213        0.4214074892
 H          5.2665695478        2.1208223780       -0.6969352903
 C          5.3492896513        1.1534653875        1.2092339406
 H          6.0719611282        0.5991556514        1.8029074882
 H          4.8695759583        1.8986188633        1.8496276491
 H          7.6179774231       -2.1145588356       -0.1787304408
 H          7.4269059122       -0.8053037406        0.9655591960
 H          5.6802893579       -2.2380230976        1.5439634090
 H          5.4135763667       -2.7712640497       -0.1103071142
 O          3.3673335640       -1.7709698417       -0.1286842363
 C          2.1047214632       -1.2354819560       -0.3309319679
 O          1.2766445251       -2.0379843315       -0.8018922482
 H         -1.7957760672       -0.5672532076       -1.0450380865
 C         -1.6147621548       -0.6449871899        0.0132661139
 C         -0.4971557947       -0.0629950453        0.5884816288
 C         -0.2992344784       -0.2103788684        1.9601561557
 C         -1.1860049097       -0.9371459768        2.7286537658
 C         -2.2979552389       -1.5237037896        2.1486180949
 C         -2.5088106419       -1.3788007381        0.7836144958
 N         -3.6195889234       -1.9785372648        0.1687598240
 S         -4.5438787190       -1.1278008496       -0.9329223739
 O         -5.7684886519       -1.8896314311       -1.0405331842
 O         -3.8123278072       -0.9209332308       -2.1559701973
 C         -4.8656442855        0.4295029318       -0.1259841691
 C         -4.0771892954        1.5251660230       -0.4117592766
 C         -4.2972687142        2.7057346488        0.2805413758
 C         -5.2950455000        2.7697283266        1.2405573945
 C         -6.0825193135        1.6609179311        1.5122435257
 C         -5.8645760752        0.4769523216        0.8272349838
 H         -6.4605238209       -0.4043819368        1.0006748575
 H         -6.8613408408        1.7156747735        2.2556937522
 H         -5.4610680854        3.6902481148        1.7776444141
 H         -3.6874326858        3.5694578420        0.0684075764
 H         -3.3145755892        1.4389839920       -1.1677081373
 H         -4.2078822347       -2.5067645291        0.7964242909
 H         -2.9883697680       -2.1003434532        2.7452227623
 H         -1.0140450180       -1.0484149661        3.7886103360
 H          0.5720165293        0.2447776679        2.4112520685
 C          0.5256215300        0.7111280669       -0.2041208181
 H          0.5925008118        1.7258325456        0.2156362052
 C          0.2128130469        0.8163033912       -1.6811061545
 C         -0.6870797100        1.9031579167       -2.1851064952
 C          0.7842961958        1.9585848275       -2.4644961644
 H          1.1290762288        1.7721215563       -3.4705972240
 H          1.3796800024        2.6807655957       -1.9249869043
 H         -1.3595311262        1.6785242357       -3.0001255278
 H         -1.0821516825        2.5975089975       -1.4587754183
 H          0.1730490740       -0.1495524001       -2.1731171821
 O          2.7623213265        2.1159715349        0.8606367774
