  62
        -98.94557201
 C         -2.3977182301       -0.8603875031        0.1792159875
 C         -1.9451692846        0.0248290856       -0.8291921257
 C         -2.3776247327        1.4232570892       -0.6908778483
 C         -3.1506324078        1.7756306724        0.3526807187
 C         -3.6069844315        3.1748289365        0.6473030589
 C         -2.6113050026        3.9006222936        1.5634336176
 C         -1.1577516663        3.7971039390        1.1002686874
 H         -0.5504304222        4.3684127521        1.8058034115
 H         -0.8345268657        2.7554749395        1.1689281629
 C         -0.9087329353        4.3099411403       -0.3249031332
 H         -0.0112162663        4.9315394767       -0.3200427257
 H         -1.7388532178        4.9434619752       -0.6391908913
 C         -0.6871453182        3.2096926135       -1.3642536522
 H          0.0810726232        2.5178579435       -1.0096510810
 H         -0.3112360565        3.6766334789       -2.2778252659
 C         -1.9269031398        2.3925212439       -1.7470842228
 H         -2.7413474872        3.0636112187       -2.0269545042
 H         -1.6654467042        1.7839890194       -2.6174442978
 H         -2.9012131325        4.9510560749        1.6254945975
 H         -2.6841644956        3.4694005272        2.5648140581
 H         -3.7202486930        3.7194728297       -0.2878808887
 H         -4.5757299161        3.1234491796        1.1471018277
 O         -3.5638212969        0.8957457872        1.3015389764
 C         -3.1946052109       -0.4388125466        1.2424362645
 O         -3.6259889959       -1.1355701804        2.1844117548
 O         -1.2168311457       -0.3312168319       -1.7907327795
 C         -2.0154095450       -2.3270169424        0.1181758009
 C         -0.5152178061       -2.4939626139        0.0731224102
 C          0.1116041250       -3.4504968204       -0.7153486572
 C          1.4893523852       -3.5822801843       -0.6958593216
 C          2.2710082609       -2.7692623104        0.1035347359
 C          1.6563459579       -1.8019839122        0.8896473441
 C          0.2743080811       -1.6794210976        0.8751287491
 H         -0.2034921651       -0.9336227837        1.4993026960
 N          2.4260038384       -0.9744784182        1.7244897156
 S          3.8392591769       -0.2544878436        1.1994771147
 O          4.8101198142       -1.2766084542        0.8995121489
 O          4.1891862122        0.6714448003        2.2521483172
 C          3.4312155875        0.6485365393       -0.2826263588
 C          3.4132739455       -0.0043297022       -1.4989259470
 C          3.0719573055        0.7102481938       -2.6361613319
 C          2.7649402166        2.0581857819       -2.5406775455
 C          2.7936558370        2.7010618482       -1.3125088423
 C          3.1222034676        1.9897441794       -0.1702274196
 H          3.1602877767        2.4516897180        0.8033884569
 H          2.5588558633        3.7509376002       -1.2414888705
 H          2.5013762230        2.6111830613       -3.4282908970
 H          3.0455203980        0.2115964930       -3.5915239733
 H          3.6706120790       -1.0493105494       -1.5413618467
 H          1.8811695982       -0.3206224342        2.2662943628
 H          3.3436109528       -2.8710693154        0.1366163087
 H          1.9623531085       -4.3334065943       -1.3101685021
 H         -0.4788458968       -4.0953933565       -1.3449578869
 H         -2.3772506884       -2.7764738003        1.0552661065
 C         -2.7259938092       -2.9916279996       -1.0443309119
 C         -3.1493882598       -4.4263446033       -0.9586357320
 C         -4.1764674053       -3.3370225290       -0.8981863933
 H         -4.8300591044       -3.1929969670       -1.7454101053
 H         -4.6422097971       -3.1218901963        0.0529303741
 H         -3.1018172555       -5.0328925743       -1.8506037275
 H         -2.9269458692       -4.9615676917       -0.0477658415
 H         -2.3973806729       -2.6089333982       -2.0037824334
