  62
        -98.94515850
 C         -2.5236730012       -0.2999210590        0.0519192744
 C         -2.2168611975       -1.3089036283       -0.8904724732
 C         -1.5729921459       -2.5158967889       -0.3593472356
 C         -1.3261020762       -2.6010957041        0.9606922409
 C         -0.6781984268       -3.7747233345        1.6372751683
 C          0.8414238591       -3.6033442990        1.7546588866
 C          1.5310674621       -3.2166732618        0.4461121382
 H          1.2425953205       -2.1971145365        0.1792432113
 H          2.6059943242       -3.1951802872        0.6430875498
 C          1.2481591815       -4.1535554160       -0.7358769619
 H          0.8876004549       -5.1163752754       -0.3706467308
 H          2.1859708765       -4.3347958151       -1.2651018494
 C          0.2611585286       -3.5940272659       -1.7626516757
 H          0.5481349962       -2.5692390648       -2.0168513927
 H          0.3395942293       -4.1935502371       -2.6740224504
 C         -1.2138262077       -3.5969365052       -1.3391728611
 H         -1.8182870008       -3.4040905782       -2.2306338283
 H         -1.4828860030       -4.5806859988       -0.9477246168
 H          1.2633867729       -4.5384516124        2.1292063035
 H          1.0458125485       -2.8157290668        2.4835759983
 H         -1.1002840846       -3.8619984313        2.6403399188
 H         -0.9095497269       -4.6787425133        1.0764285074
 O         -1.6402238494       -1.6145387083        1.8379877123
 C         -2.1962016830       -0.4221567972        1.4025778223
 O         -2.3747967227        0.4213184092        2.3023796619
 H         -0.5067417457        0.8201217857       -0.9441379100
 C         -0.7531751096        1.8018301680       -0.5638118203
 C         -2.0751250829        2.1038658789       -0.2579760859
 C         -2.3671982618        3.3840823306        0.1908415104
 C         -1.3562632141        4.3192299459        0.3503728852
 C         -0.0369364911        3.9945521662        0.0946438784
 C          0.2632369751        2.7154447080       -0.3605561577
 N          1.6132813342        2.3197388334       -0.5533879300
 S          1.9667030539        0.6894308388       -0.3805915959
 O          1.7210418071       -0.0465296372       -1.6059313678
 O          1.3154785021        0.2179089384        0.8143172353
 C          3.7250700200        0.7915184466       -0.1037773422
 C          4.1603316236        1.3083422801        1.1016411915
 C          5.5219112238        1.4210141993        1.3310116850
 C          6.4220820280        1.0170347979        0.3556687862
 C          5.9709480417        0.4978315464       -0.8479220272
 C          4.6092603603        0.3839009347       -1.0831846547
 H          4.2115735842       -0.0194309641       -2.0006403853
 H          6.6723711086        0.1815280659       -1.6031246763
 H          7.4816646788        1.1056058183        0.5365688778
 H          5.8757507742        1.8221787907        2.2670721814
 H          3.4220686245        1.6004001961        1.8306663759
 H          2.0665898649        2.7326967512       -1.3553507656
 H          0.7551803910        4.7094990838        0.2477628233
 H         -1.6011223550        5.3109378871        0.6992223804
 H         -3.3859110476        3.6493413545        0.4232288176
 C         -3.1023875176        1.0132854645       -0.4454626401
 H         -3.2544776028        0.8718429501       -1.5270477767
 C         -4.4362327013        1.3174438331        0.2010518648
 C         -5.4689288658        2.1132694640       -0.5386750303
 C         -5.6663048603        0.6434098121       -0.3263534949
 H         -6.4164429613        0.3168873364        0.3778751702
 H         -5.5438543810       -0.0182360081       -1.1716385028
 H         -5.2217341871        2.4507331451       -1.5339059721
 H         -6.0895489850        2.7973674702        0.0199929856
 H         -4.3567676881        1.4467877114        1.2742285589
 O         -2.4779722504       -1.2048828690       -2.1220927473
