  62
        -98.93550799
 C         -2.2336756199       -1.4251001599        0.2765866095
 C         -1.8913960300       -0.3198841697       -0.5408003502
 C         -2.9453297000        0.6977083604       -0.7334930499
 C         -4.1306781400        0.5587386002       -0.1179832899
 C         -5.3573078400        1.4316276102       -0.2149235095
 C         -5.1554481101        2.9523445702       -0.2142174091
 C         -3.9858841700        3.4499398499        0.6471623610
 H         -4.3435520600        4.2422123697        1.3073279512
 H         -3.6168795800        2.6407894098        1.2798355307
 C         -2.8320166001        4.0150698302       -0.1838205789
 H         -2.2253336901        4.6626412300        0.4535935912
 H         -3.2456465501        4.6361880304       -0.9813481187
 C         -1.8953379301        2.9735428004       -0.7940566993
 H         -1.3160877000        2.4908994502       -0.0019988794
 H         -1.1919458401        3.4985343006       -1.4455622691
 C         -2.5762272901        1.8616953706       -1.6083124196
 H         -3.4361808201        2.2414582608       -2.1547750194
 H         -1.8482655901        1.4798354209       -2.3294977997
 H         -5.0196403401        3.3034489405       -1.2362554190
 H         -6.0870014701        3.3921704800        0.1462506011
 H         -5.9058560201        1.1443899404       -1.1171184096
 H         -5.9754884200        1.1452339599        0.6396068704
 O         -4.3959224299       -0.4933549301        0.7074510699
 C         -3.4708658399       -1.4971367301        0.9239899995
 O         -3.8601357298       -2.3860149804        1.7076509093
 H          0.8980772600       -2.3417869994       -1.0812836509
 C          1.1008213201       -2.0366458597       -0.0669124209
 C          0.0929673401       -2.0947880700        0.8811341092
 C          0.3662439502       -1.6581964104        2.1736116393
 C          1.6248919202       -1.1944718604        2.5101010194
 C          2.6309351301       -1.1376545601        1.5611723293
 C          2.3570906301       -1.5440825498        0.2616370292
 N          3.3480687400       -1.4636408195       -0.7262300008
 S          4.5268749200       -0.2904233994       -0.6576333805
 O          4.9671332999       -0.1243764390       -2.0261648705
 O          5.5508077401       -0.6926839797        0.2773575293
 C          3.7759130700        1.2241673604       -0.0776495000
 C          4.5375033300        2.0416309601        0.7352287202
 C          4.0110068500        3.2483255700        1.1655862405
 C          2.7334068800        3.6179765001        0.7752188107
 C          1.9817979800        2.7860644603       -0.0392370495
 C          2.5015659400        1.5768039204       -0.4748372099
 H          1.9091338600        0.9191981806       -1.0916382400
 H          0.9847896599        3.0656897104       -0.3384788794
 H          2.3186480100        4.5563149200        1.1082554410
 H          4.5959320200        3.8931267698        1.8016022207
 H          5.5230743600        1.7100472401        1.0200614100
 H          3.0116798300       -1.6078125392       -1.6663209808
 H          3.6196249201       -0.7879452502        1.8119744694
 H          1.8266145102       -0.8708390807        3.5198821594
 H         -0.4220556298       -1.6870620906        2.9133196193
 C         -1.2885451299       -2.5875909099        0.5346665591
 H         -1.6994666598       -3.0927706202        1.4230798190
 C         -1.2687682199       -3.6235003396       -0.5821788812
 C         -2.5417375199       -4.0400784195       -1.2546202913
 C         -1.5033843300       -3.2799202092       -2.0212012011
 H         -0.9331359200       -3.8084663590       -2.7715539713
 H         -1.7022614200       -2.2495512391       -2.2710258508
 H         -3.4466381899       -3.5241438096       -0.9676134811
 H         -2.6885312899       -5.0857678494       -1.4789175916
 H         -0.5489178199       -4.4119406897       -0.3832526815
 O         -0.7804887800       -0.1738276795       -1.1114707102
