  62
        -98.93880114
 C         -1.8838493280       -0.1454566511       -0.0995819039
 C         -2.9055435798       -1.0591986206        0.2431450927
 C         -4.2412437394       -0.4961486852        0.5197120987
 C         -4.4062047513        0.8380426368        0.4491700804
 C         -5.6709695587        1.6294311455        0.6507424132
 C         -6.6211152130        1.5436563909       -0.5550756271
 C         -6.7831646290        0.1466869643       -1.1489310338
 H         -7.3820870725        0.2404709004       -2.0587278397
 H         -5.8033318874       -0.2325175873       -1.4450080866
 C         -7.4697075589       -0.8712626608       -0.2413979838
 H         -8.4676169632       -0.5074493963        0.0136768334
 H         -7.5897886564       -1.7914325460       -0.8189997030
 C         -6.7332804839       -1.2165107496        1.0544121223
 H         -7.2094348877       -2.1092128027        1.4705725017
 H         -6.8534807039       -0.4299523064        1.7944495266
 C         -5.2562502172       -1.5550352186        0.8783609057
 H         -5.1566078395       -2.3365753390        0.1165586035
 H         -4.8912061372       -2.0109668475        1.8066953834
 H         -6.2281835158        2.1944367270       -1.3401157784
 H         -7.5964941044        1.9297252746       -0.2542268303
 H         -6.1694296194        1.3105204799        1.5612961345
 H         -5.3708960666        2.6712651931        0.7830583565
 O         -3.3859664206        1.6836222414        0.1245173797
 C         -2.1111043504        1.2285729929       -0.1584646605
 O         -1.2929295359        2.1251760875       -0.4389503298
 O         -2.7159865613       -2.3038136708        0.3162184542
 C         -0.4958779721       -0.6779782648       -0.4083673175
 C          0.5065797100       -0.0678982193        0.5386054672
 C          0.2914959557       -0.2016892064        1.9090183547
 C          1.1607221306        0.3634405018        2.8202173970
 C          2.2728090675        1.0642208191        2.3854450459
 C          2.5012436415        1.1986236763        1.0222657650
 C          1.6242510773        0.6279386070        0.1077850769
 H          1.8199222692        0.7648722896       -0.9419031068
 N          3.6143001765        1.9168209394        0.5552176095
 S          4.5700557122        1.2910232654       -0.6645654334
 O          5.7890907101        2.0668942831       -0.6035685336
 O          3.8652759557        1.3091433890       -1.9200714259
 C          4.8894174386       -0.3859994330       -0.1496088149
 C          4.1179505321       -1.4147847472       -0.6498349194
 C          4.3310729429       -2.7004769990       -0.1775844769
 C          5.3046742371       -2.9333049616        0.7811912859
 C          6.0750566202       -1.8889694607        1.2702578252
 C          5.8640766213       -0.6013190056        0.8055635499
 H          6.4473262790        0.2364861769        1.1519243701
 H          6.8349445139       -2.0744020346        2.0121897019
 H          5.4650551143       -3.9352252551        1.1469528645
 H          3.7342378044       -3.5139584560       -0.5583577916
 H          3.3734402152       -1.1952711614       -1.3969007808
 H          4.1857891949        2.3164402163        1.2852796671
 H          2.9499039339        1.5146358436        3.0952659177
 H          0.9749719269        0.2574277101        3.8783671507
 H         -0.5790075866       -0.7470194408        2.2473827967
 H         -0.5493475490       -1.7580476638       -0.2062486118
 C         -0.1649102662       -0.4731400604       -1.8709011556
 C          0.7658867837       -1.4158565939       -2.5710531977
 C         -0.7001717768       -1.4419476638       -2.8807753637
 H         -1.0364872595       -1.0602255768       -3.8330930283
 H         -1.2856666506       -2.2708266563       -2.5103847778
 H          1.4440431265       -1.0158777193       -3.3106740950
 H          1.1672021542       -2.2363337718       -1.9952558984
 H         -0.1406536292        0.5735768920       -2.1543353500
