  62
        -98.93101441
 C         -2.1093375083       -1.2092342851        0.0049001265
 C         -2.0918443679       -0.0582404680       -0.8192196317
 C         -2.7974255116        1.1305604246       -0.2911970048
 C         -3.3728150417        1.0778216782        0.9208668968
 C         -4.1696535693        2.1503319122        1.6117767361
 C         -5.6716066500        1.9833098563        1.3247849060
 C         -6.1654725947        2.6718882115        0.0531190071
 H         -7.2033513459        2.3673359876       -0.0994494873
 H         -6.1595181662        3.7531390904        0.2051743419
 C         -5.3688885369        2.3531174850       -1.2145840779
 H         -5.1457530486        1.2852513189       -1.2509625265
 H         -6.0016732355        2.5808800479       -2.0745653759
 C         -4.0670524752        3.1604807558       -1.3287966987
 H         -4.0779275332        3.9627245242       -0.5912975429
 H         -4.0238562022        3.6411866569       -2.3084003805
 C         -2.7754207775        2.3424036594       -1.1827267302
 H         -2.4744247247        1.9583854387       -2.1630081584
 H         -1.9646365815        3.0003507365       -0.8500821899
 H         -5.8836099641        0.9124832446        1.2704994102
 H         -6.2360635128        2.3860240423        2.1681583863
 H         -4.0030823387        2.0172586498        2.6827551123
 H         -3.8192395018        3.1366964464        1.3230540511
 O         -3.3466489487       -0.0450395794        1.6921769418
 C         -2.7195683620       -1.1967682092        1.2618165893
 O         -2.7777687209       -2.1446760263        2.0717002037
 O         -1.5432836777        0.0012135745       -1.9496323304
 C         -1.4236494474       -2.5216014177       -0.3401473982
 C         -0.0821860800       -2.6086887960        0.3438942952
 C          0.3298121280       -3.7897621966        0.9506293431
 C          1.5704462680       -3.8733545800        1.5566414993
 C          2.4238298509       -2.7855962326        1.5612646679
 C          2.0143942777       -1.5936155422        0.9723463008
 C          0.7665867662       -1.5115712906        0.3714581493
 H          0.4610693434       -0.5812062403       -0.0847888310
 N          2.8441697765       -0.4626014459        1.0048291730
 S          2.7606167925        0.6457740859       -0.2667585127
 O          1.6827437048        1.5663197499       -0.0064539440
 O          2.7399341172       -0.0558600013       -1.5293264491
 C          4.3252657963        1.4755094999       -0.0550604976
 C          4.4264442689        2.4762945388        0.8927965821
 C          5.6514025910        3.0951718349        1.0855745790
 C          6.7490481630        2.7047595119        0.3326986666
 C          6.6318192079        1.7008314259       -0.6167656118
 C          5.4096796875        1.0772307106       -0.8138406286
 H          5.2679659030        0.2982620024       -1.5456677932
 H          7.4855808510        1.4019195736       -1.2032018764
 H          7.7010251647        3.1882078700        0.4850067076
 H          5.7452787328        3.8782969954        1.8204836264
 H          3.5438669096        2.7505723948        1.4470741644
 H          3.7981855017       -0.6774709380        1.2606607989
 H          3.3945124966       -2.8498130736        2.0287191632
 H          1.8786597109       -4.7958095375        2.0246572989
 H         -0.3368163716       -4.6395708075        0.9564107539
 H         -2.0600987325       -3.3102172206        0.0958355271
 C         -1.3264392737       -2.7998279900       -1.8326410759
 C         -0.0838934646       -2.5707432864       -2.6335599991
 C         -0.5319429549       -3.9686196154       -2.3370294218
 H         -0.9423610334       -4.5595680777       -3.1418022525
 H          0.0406902660       -4.5337361870       -1.6174848199
 H         -0.2026965402       -2.1823672411       -3.6337127666
 H          0.7878186333       -2.1794974656       -2.1303282842
 H         -2.2639819449       -2.5944904608       -2.3392300124
