  62
        -98.92989757
 C         -2.2795532456       -1.1530797316       -0.2007803918
 C         -3.0755454194       -0.3272763507       -1.0324881916
 C         -4.4238155188       -0.0110514934       -0.5244709263
 C         -4.8137474928       -0.4926974523        0.6684499458
 C         -6.1194998396       -0.1942492462        1.3488600740
 C         -6.0779229135        1.2118211625        1.9806514768
 C         -7.0481471854        2.2132199244        1.3534725182
 H         -8.0593908297        1.9934444300        1.7023255611
 H         -6.7799653739        3.2045336485        1.7249209337
 C         -7.0773831407        2.2451914516       -0.1776784972
 H         -7.5945127852        3.1627457759       -0.4663845925
 H         -7.6825539475        1.4174620804       -0.5505395302
 C         -5.7118019589        2.2086211489       -0.8758476388
 H         -4.9310669107        2.5829366391       -0.2135103626
 H         -5.7514877653        2.8828821012       -1.7337119711
 C         -5.3037705094        0.8241785400       -1.4134572894
 H         -6.2001423102        0.2558035701       -1.6765527971
 H         -4.7221923711        0.9634673335       -2.3295658941
 H         -6.3034277911        1.1387508586        3.0456575515
 H         -5.0573978415        1.5923751913        1.9018089532
 H         -6.9329638485       -0.2674643240        0.6303949115
 H         -6.2642045459       -0.9525866829        2.1186889708
 O         -4.0125462819       -1.2668929621        1.4474129931
 C         -2.7397962954       -1.6147200773        1.0349232038
 O         -2.1198266139       -2.3380973693        1.8421464987
 H          1.3225668879       -2.0496613303        0.9100655139
 C          1.2467841886       -1.0146170696        0.6026018410
 C          0.1600834076       -0.6044664099       -0.1556899655
 C          0.0745296910        0.7343144809       -0.5260614913
 C          1.0618851392        1.6300372579       -0.1567062836
 C          2.1539297402        1.2107972383        0.5846332779
 C          2.2397612374       -0.1189970210        0.9700252415
 N          3.3808565928       -0.5501274181        1.6984407776
 S          4.6609315123       -0.9540264774        0.6741451506
 O          4.1896803193       -1.6910326195       -0.4784162992
 O          5.6325375172       -1.6297372862        1.5049709373
 C          5.2801626363        0.6341251840        0.1725907192
 C          6.0121177989        1.3714013623        1.0829188769
 C          6.4726216989        2.6242058714        0.7108975529
 C          6.1917309527        3.1152279970       -0.5557659119
 C          5.4558416983        2.3615340439       -1.4575785771
 C          4.9931547838        1.1069438645       -1.0925402742
 H          4.4162044429        0.4866971184       -1.7595812391
 H          5.2381131637        2.7454155456       -2.4412312799
 H          6.5492833667        4.0916215423       -0.8426408148
 H          7.0462696411        3.2134709691        1.4080511199
 H          6.2088605306        0.9475717499        2.0537049125
 H          3.1838110055       -1.3509958312        2.2845959280
 H          2.9264556882        1.9029142645        0.8775944105
 H          0.9830799379        2.6647281735       -0.4531550397
 H         -0.7715437580        1.0592801997       -1.1127466359
 C         -0.8792380107       -1.6097926437       -0.5755875794
 H         -0.7110528069       -2.5215554857        0.0204409177
 C         -0.7468271321       -2.0122278069       -2.0388083851
 C         -0.0058025684       -1.2176903464       -3.0668961697
 C          0.5717127032       -2.5034439164       -2.5616911804
 H          0.5815731766       -3.3629850000       -3.2150863903
 H          1.4282901415       -2.4429938760       -1.9044448921
 H          0.4646511173       -0.2965340466       -2.7632473283
 H         -0.4193433592       -1.1863281059       -4.0632237060
 H         -1.6306607560       -2.5371687585       -2.3881076020
 O         -2.7016143925        0.1302836583       -2.1413446206
