  62
        -98.93307580
 C         -2.2223259387       -0.1912695001        0.3312898274
 C         -3.2539372861       -0.8111928177       -0.4124344530
 C         -4.4018655467        0.0413087249       -0.7796809662
 C         -4.4016947646        1.3371740182       -0.4258487081
 C         -5.4832667977        2.3548519994       -0.6613348948
 C         -6.4236339656        2.4385715056        0.5530130811
 C         -7.5827621615        1.4426575559        0.5399860643
 H         -8.0847149789        1.5159243698        1.5075214533
 H         -8.3022931157        1.7402897136       -0.2256406854
 C         -7.1888053337       -0.0169909994        0.2994501556
 H         -7.9978676595       -0.6476742698        0.6730628840
 H         -6.2970577645       -0.2580103195        0.8809303137
 C         -6.9502223856       -0.3409546333       -1.1828497593
 H         -7.5326129826       -1.2227885801       -1.4576753483
 H         -7.3277979450        0.4803574316       -1.7915792720
 C         -5.4921268232       -0.6383313834       -1.5632853391
 H         -5.2952313450       -1.7077019712       -1.4396902070
 H         -5.3473422901       -0.4159795145       -2.6256500726
 H         -5.8207860496        2.2916106522        1.4529896520
 H         -6.8431590497        3.4454482763        0.6026300329
 H         -6.0329679021        2.1305801766       -1.5705020184
 H         -4.9823868439        3.3178909255       -0.7802225538
 O         -3.3805065323        1.9010771889        0.2772131300
 C         -2.2855859933        1.1622836990        0.6766590641
 O         -1.4442701928        1.8119637552        1.3314696481
 O         -3.2482497106       -2.0215841205       -0.7616763345
 C         -0.9752582069       -0.9220293246        0.8030689235
 C          0.0424764094       -1.0533770603       -0.3054356607
 C         -0.1940440180       -1.8448528402       -1.4249148647
 C          0.7692859650       -1.9677931500       -2.4089851478
 C          1.9884168835       -1.3243011035       -2.2894034204
 C          2.2296862500       -0.5222487332       -1.1802142586
 C          1.2545479500       -0.3865664662       -0.2019579454
 H          1.4519304124        0.2483683335        0.6500579054
 N          3.4465357312        0.1646042384       -1.0418249224
 S          4.0861468652        0.3528263418        0.5090630016
 O          3.9303299809       -0.8729104654        1.2595902588
 O          3.5290875320        1.5417937875        1.1039137748
 C          5.8053713856        0.6233837133        0.1202803378
 C          6.2170161021        1.8961412725       -0.2274878159
 C          7.5465622315        2.1024307518       -0.5596643131
 C          8.4368621734        1.0389331879       -0.5396360583
 C          8.0094627481       -0.2322970210       -0.1866480664
 C          6.6808768359       -0.4459284835        0.1456052223
 H          6.3051174480       -1.4141781554        0.4350207840
 H          8.7047311995       -1.0560063947       -0.1682910511
 H          9.4711453745        1.2028990078       -0.7976262523
 H          7.8829855741        3.0899426494       -0.8314692379
 H          5.4906464447        2.6922535042       -0.2192878471
 H          4.1470284226       -0.1355122176       -1.7060247738
 H          2.7445575055       -1.4338358505       -3.0520476856
 H          0.5735580623       -2.5834557831       -3.2739751506
 H         -1.1423142893       -2.3506875195       -1.5183718639
 H         -0.5321546850       -0.2785104534        1.5762281660
 C         -1.2644161826       -2.2770016466        1.4216052587
 C         -0.2038547345       -2.9204856064        2.2614904755
 C         -1.4473646990       -2.3839967905        2.9037984778
 H         -2.1752648430       -3.0849761279        3.2840516080
 H         -1.3697170823       -1.4759549519        3.4847684644
 H         -0.0779610732       -3.9906237595        2.2007831139
 H          0.7202449873       -2.3777454647        2.4018438544
 H         -1.8711335596       -2.9172472117        0.7954901897
