  62
        -98.93679392
 C         -2.4178234455       -1.2397120848        0.1094893310
 C         -2.3081416273        0.0430680809       -0.4816265476
 C         -3.5777644342        0.6770606429       -0.8753623004
 C         -4.7383421304        0.0342132858       -0.6560594201
 C         -6.0997542860        0.5869555448       -0.9614756573
 C         -6.6778693052        1.3387428157        0.2457234864
 C         -5.7122062821        2.3491182608        0.8650393940
 H         -6.2380368800        2.8398814920        1.6868350312
 H         -4.8650168719        1.8135853799        1.2997123498
 C         -5.1896306075        3.4101113659       -0.1134360474
 H         -5.2356919737        4.3871414318        0.3720185686
 H         -5.8343302380        3.4539916962       -0.9919361152
 C         -3.7407567378        3.2034254647       -0.5592682151
 H         -3.4068678246        4.1133076916       -1.0652627697
 H         -3.1017137196        3.0640214250        0.3165911691
 C         -3.4985096266        2.0324352385       -1.5200138531
 H         -4.1879880474        2.0992297194       -2.3642945221
 H         -2.4770809132        2.1232950869       -1.9020796645
 H         -6.9462217569        0.6079411846        1.0120095907
 H         -7.5887882208        1.8500200502       -0.0705497031
 H         -6.0310121725        1.2527798659       -1.8194717098
 H         -6.7602455889       -0.2453391114       -1.2103029275
 O         -4.8048716996       -1.1899960975       -0.0730165842
 C         -3.6562284927       -1.8458615852        0.3377141394
 O         -3.8653904184       -2.9432132254        0.8915811392
 H          1.4338681375       -1.3754765709       -0.0378369110
 C          1.0685735205       -0.8881687514        0.8495337841
 C         -0.2323949488       -1.0913322643        1.2815705787
 C         -0.6706289308       -0.4223002698        2.4216966539
 C          0.1657234613        0.4454962992        3.0955459713
 C          1.4584180582        0.6589626351        2.6512151791
 C          1.9115902504       -0.0156583362        1.5234035775
 N          3.2409727058        0.1509463500        1.0963943931
 S          3.6808853619        0.0031991178       -0.5236040458
 O          2.9742579139        0.9602930453       -1.3445636763
 O          3.5822506373       -1.3803393486       -0.9146633952
 C          5.3998262207        0.4647824874       -0.3953423509
 C          5.7788597137        1.7626641086       -0.6813218702
 C          7.1126546566        2.1167633575       -0.5512305562
 C          8.0399505152        1.1726004036       -0.1369610288
 C          7.6452041641       -0.1268757264        0.1448600371
 C          6.3134095289       -0.4872254931        0.0155980280
 H          5.9616925563       -1.4860356850        0.2144082805
 H          8.3695691856       -0.8591066147        0.4632673656
 H          9.0772474608        1.4504732503       -0.0364554491
 H          7.4227608047        3.1251095260       -0.7736432906
 H          5.0248088179        2.4600967545       -1.0097397898
 H          3.6760101384        0.9678664718        1.5035059837
 H          2.1105033644        1.3434420544        3.1724654176
 H         -0.1921644266        0.9665210114        3.9711499492
 H         -1.6856873566       -0.5816229393        2.7616801687
 C         -1.1951579748       -2.0129561369        0.5731590432
 H         -1.5778734513       -2.7333653298        1.3159686231
 C         -0.5329731185       -2.8331479911       -0.5240533094
 C         -1.3147587550       -3.3586124412       -1.6896138579
 C         -0.2931119062       -2.2829197055       -1.8965331140
 H          0.6344286449       -2.5326629466       -2.3921607112
 H         -0.6303695794       -1.2779443167       -2.0973489478
 H         -2.3595537974       -3.0913523662       -1.7550559661
 H         -1.0951850118       -4.3539521148       -2.0453431157
 H          0.2348245096       -3.4920022881       -0.1286548121
 O         -1.2182585262        0.6423367218       -0.6748969581
