  62
        -98.93195349
 C          2.4231320602        0.8967936999        0.6480051097
 C          3.4709120201        0.9054135700       -0.3020474804
 C          4.6650609802        0.1006062402        0.0253215995
 C          4.6956610704       -0.6199445297        1.1608549296
 C          5.7748028006       -1.4957576695        1.7630565496
 C          6.9798053806       -1.9345741494        0.9352024496
 C          6.6561683006       -2.9030939396       -0.2022210703
 H          7.5646885506       -3.0584007195       -0.7881821003
 H          6.3719876308       -3.8651419096        0.2316703999
 C          5.5295422305       -2.4710385598       -1.1375624202
 H          4.5938429705       -2.4015489699       -0.5787807702
 H          5.3975166805       -3.2563646099       -1.8869423001
 C          5.7626717302       -1.1567014299       -1.8795546904
 H          4.9612429701       -1.0481587301       -2.6154848603
 H          6.7096769402       -1.2026069298       -2.4209740705
 C          5.7595012201        0.1072527802       -1.0033133506
 H          6.7270508501        0.2657555404       -0.5335785007
 H          5.5654018299        0.9656172701       -1.6529338306
 H          7.6579669607       -2.4485288492        1.6219258896
 H          7.5136166304       -1.0672622294        0.5580690194
 H          5.2590611308       -2.3836804195        2.1425094698
 H          6.1390117606       -0.9529671593        2.6423919895
 O          3.6492203705       -0.6150574397        2.0383754397
 C          2.5087813104        0.1290234201        1.8120433497
 O          1.6496334005        0.0312001301        2.7119703098
 O          3.4461448899        1.5550346598       -1.3806253705
 C          1.1350448100        1.6889677397        0.4877703097
 C          0.1575379801        0.9643368095       -0.4077369002
 C          0.4244670000        0.7531975594       -1.7561522801
 C         -0.4915488000        0.0929663392       -2.5546914100
 C         -1.6871479999       -0.3671224909       -2.0314929198
 C         -1.9643861998       -0.1602754208       -0.6870440798
 C         -1.0441335898        0.5065080394        0.1128949700
 H         -1.2564105798        0.6554904995        1.1633778500
 N         -3.1679751597       -0.6411740009       -0.1408951897
 S         -4.5730976298       -0.4322627712       -1.0563132596
 O         -4.6505524297       -1.4997983113       -2.0218889194
 O         -4.6192620300        0.9090716787       -1.5934047697
 C         -5.8305597197       -0.6489206712        0.1870381206
 C         -6.2033813495       -1.9317602413        0.5409585808
 C         -7.1648348293       -2.1016634113        1.5243459009
 C         -7.7338198094       -0.9930762613        2.1336909308
 C         -7.3505226796        0.2881114787        1.7665083106
 C         -6.3883524798        0.4653446788        0.7847450105
 H         -6.0669020499        1.4423738688        0.4609612104
 H         -7.7970745097        1.1477876387        2.2397428405
 H         -8.4831140394       -1.1281557613        2.8976483109
 H         -7.4677058492       -3.0957307013        1.8112269110
 H         -5.7414032594       -2.7625939912        0.0337573708
 H         -3.3020986496       -0.3390312208        0.8143782203
 H         -2.4103659699       -0.8774122011       -2.6473433797
 H         -0.2731106201       -0.0664330509       -3.6002301300
 H          1.3597631899        1.0999814695       -2.1675852603
 H          0.6941462801        1.7325286598        1.4929373997
 C          1.3590099498        3.1092969997        0.0059372295
 C          0.2944972097        4.1328647296        0.2563044495
 C          1.5883495497        4.1961861799        1.0103186393
 H          2.2902707996        4.9800790999        0.7689821792
 H          1.5841326299        3.9208165600        2.0552002294
 H          0.1040833595        4.8740600295       -0.5045551006
 H         -0.5890746602        3.8157309495        0.7897862996
 H          1.9070334497        3.1684033497       -0.9244408706
