  62
        -98.94111007
 C          0.7743930999        1.2068946102       -0.0004389612
 C          1.4914606720        0.5215377790        1.0070310886
 C          2.4480750913       -0.4999000830        0.5484661570
 C          2.5655975773       -0.7492237491       -0.7670515106
 C          3.5085816857       -1.6996774787       -1.4628100282
 C          4.9548223019       -1.7612557663       -0.9504455630
 C          5.5129903275       -0.4397163396       -0.4027677713
 H          6.4708250821       -0.2321120888       -0.8834255708
 H          4.8401715343        0.3835553079       -0.6483905561
 C          5.7450511647       -0.4735012034        1.1098844326
 H          6.4618222777        0.3077156574        1.3742767212
 H          6.1964942020       -1.4324520812        1.3739239917
 C          4.5001719387       -0.2536143049        1.9690345134
 H          4.1796887488        0.7893188009        1.8985232630
 H          4.7734882457       -0.4331123698        3.0118477814
 C          3.2899222087       -1.1343071677        1.6178834003
 H          3.6020112473       -2.1391480299        1.3435345831
 H          2.6535637691       -1.1971961035        2.5053315740
 H          5.0355001104       -2.5246337098       -0.1778124121
 H          5.5708225525       -2.0963005040       -1.7866273031
 H          3.0826159121       -2.7053164886       -1.4301141071
 H          3.5056114095       -1.3821321063       -2.5080422546
 O          1.7803545159       -0.1333616754       -1.6946077932
 C          0.8780250354        0.8583825086       -1.3459766704
 O          0.2506105724        1.3412511568       -2.3060768723
 H         -1.6672963623        0.3474479164        1.1091375824
 C         -2.1835933175        1.0028908879        0.4219200094
 C         -1.5352122927        2.1348439116       -0.0583975099
 C         -2.2228158759        2.9838000034       -0.9154667492
 C         -3.5218490217        2.6931571669       -1.2936329228
 C         -4.1588026135        1.5584739475       -0.8280471970
 C         -3.4829426209        0.7085077183        0.0416393434
 N         -4.1133646151       -0.4375650131        0.5426217736
 S         -3.2512428351       -1.7462039580        1.0910805320
 O         -4.2035182189       -2.8369161684        1.0515172166
 O         -2.6844130509       -1.4670042937        2.3870436319
 C         -1.9511277731       -2.0706804411       -0.0870676656
 C         -0.7670520654       -2.5926667693        0.3913868550
 C          0.2253651019       -2.9455081733       -0.5074692041
 C          0.0237728198       -2.7565037895       -1.8655635063
 C         -1.1647128791       -2.2168914843       -2.3301401247
 C         -2.1681549672       -1.8794158667       -1.4366585089
 H         -3.1019544321       -1.4663621071       -1.7815462831
 H         -1.3115561371       -2.0555810266       -3.3858583209
 H          0.7972252858       -3.0237349506       -2.5680706691
 H          1.1479208685       -3.3643660757       -0.1388103078
 H         -0.6419144258       -2.7059526329        1.4567855750
 H         -4.9870206570       -0.6908944017        0.1070783095
 H         -5.1702934455        1.3299559825       -1.1265532172
 H         -4.0437227301        3.3577291560       -1.9651455948
 H         -1.7409745913        3.8688875998       -1.2953627547
 C         -0.1170120774        2.3719274877        0.3913956388
 H         -0.1094466977        2.3874635672        1.4914318120
 C          0.4786532957        3.6682796531       -0.1191108023
 C          0.1547168231        4.9641334674        0.5603254812
 C          1.5197946384        4.3630531297        0.7040936714
 H          2.3488221112        4.8343936654        0.1976042000
 H          1.7856463267        3.9138266925        1.6500593360
 H         -0.5070219429        4.9281069186        1.4124344859
 H          0.0479176441        5.8521136218       -0.0440179943
 H          0.6117595011        3.6724696208       -1.1953216503
 O          1.3545812691        0.7635488073        2.2369409559
