  62
        -98.94533170
 C          2.1362111731        0.8833122544        0.0467302635
 C          2.8456187246        0.2220638135        1.0769909181
 C          3.5720430842       -0.9887192134        0.6786772618
 C          3.4874930453       -1.4300011901       -0.5897126983
 C          4.1483095724       -2.6635767790       -1.1427697523
 C          5.6063279148       -2.4505044281       -1.5729471422
 C          6.6067868735       -2.2941067480       -0.4269830848
 H          7.6052699967       -2.3717006882       -0.8616342255
 H          6.4902161439       -3.1238848574        0.2708534531
 C          6.5002454441       -0.9628071256        0.3297724025
 H          5.9353164026       -0.2465609005       -0.2712499214
 H          7.4989309097       -0.5440422534        0.4720022730
 C          5.8533429733       -1.0683420272        1.7107842417
 H          5.7963847110       -0.0647634087        2.1397995183
 H          6.4805480864       -1.6789093126        2.3639906503
 C          4.4377655642       -1.6603134375        1.7018183053
 H          3.9874235419       -1.4883531084        2.6826668249
 H          4.4793693783       -2.7341475778        1.5200672195
 H          5.6535095789       -1.5725679912       -2.2213185367
 H          5.8997354614       -3.3187480104       -2.1674290004
 H          4.0976100830       -3.4679400694       -0.4081620162
 H          3.5686285177       -2.9583569346       -2.0203758057
 O          2.7499837706       -0.7947689777       -1.5394087786
 C          2.0721119269        0.3826969101       -1.2539881458
 O          1.4614726068        0.8702230415       -2.2234032562
 H         -0.1068517433        0.1690435545        1.2872811289
 C         -0.7020943414        0.8435221741        0.6830104533
 C         -0.0922686447        1.9579480432        0.1187492019
 C         -0.8653891897        2.8136830037       -0.6536050062
 C         -2.2070705130        2.5452346351       -0.8655585866
 C         -2.8071111949        1.4317152606       -0.3078461860
 C         -2.0444849620        0.5726231081        0.4731215861
 N         -2.6486471934       -0.5560377112        1.0585972677
 S         -3.4891145555       -1.6009911189        0.0448794340
 O         -3.4627306416       -2.8809673247        0.7201043817
 O         -2.9667484396       -1.5735122782       -1.3018775291
 C         -5.1528503341       -0.9668845735        0.0728599048
 C         -5.7771897534       -0.8301843976        1.2973838462
 C         -7.0737294379       -0.3427588806        1.3360823268
 C         -7.7212718485       -0.0054485234        0.1566979664
 C         -7.0820057745       -0.1522464417       -1.0648054990
 C         -5.7843558129       -0.6382222746       -1.1105685516
 H         -5.2443013016       -0.7634910279       -2.0356899779
 H         -7.5867589976        0.1099024586       -1.9807758315
 H         -8.7302236419        0.3742785559        0.1896132453
 H         -7.5741763153       -0.2272461052        2.2839511500
 H         -5.2397294580       -1.1072664687        2.1887992724
 H         -2.0228174201       -1.0798772536        1.6540478722
 H         -3.8498700790        1.2173670201       -0.4757674515
 H         -2.7939290491        3.2140751508       -1.4763806385
 H         -0.4159059039        3.6844182007       -1.1014093986
 C          1.3810258694        2.1591320228        0.3749354154
 H          1.5218231473        2.3107106387        1.4556421557
 C          1.9773070077        3.3377526663       -0.3642639042
 C          1.8592963118        4.7198018843        0.2032361037
 C          3.1825958749        4.0171155083        0.2111027126
 H          3.9540088119        4.3569456346       -0.4635673394
 H          3.5602852260        3.6437865220        1.1519231836
 H          1.3394618374        4.8306067107        1.1426563200
 H          1.7239227222        5.5467911989       -0.4771281000
 H          1.9375001884        3.2174168594       -1.4410385197
 O          2.8632140273        0.6193929737        2.2736520537
