  62
        -98.94477348
 C          1.1626882864        1.7746777300       -0.6765569314
 C          1.2115435462        0.4511318945       -1.1830184485
 C          2.5025810871       -0.2434744307       -1.0342822765
 C          3.5399370448        0.3905675863       -0.4614973762
 C          4.9024536074       -0.2008318121       -0.2432900237
 C          5.0215981051       -0.8541906775        1.1394438779
 C          3.8778945207       -1.8130703598        1.4701234104
 H          2.9477593753       -1.2487512221        1.5769321497
 H          4.0938288255       -2.2547344629        2.4457992646
 C          3.6667563439       -2.9301125789        0.4391095468
 H          3.5144154238       -3.8708922549        0.9726657608
 H          4.5605092621       -3.0453883072       -0.1759791273
 C          2.4452522136       -2.7268355028       -0.4596557011
 H          1.5848227401       -2.4775786640        0.1677223889
 H          2.2319921490       -3.6759074150       -0.9608835710
 C          2.5857813491       -1.6533484086       -1.5476589756
 H          1.7474580981       -1.7670218476       -2.2414484499
 H          3.5147376555       -1.8101832159       -2.1008472272
 H          5.0372669350       -0.0664007492        1.8961738657
 H          5.9716606054       -1.3901080311        1.1867546807
 H          5.1008404356       -0.9353570715       -1.0214725234
 H          5.6378716561        0.6023645568       -0.3187026891
 O          3.4561009246        1.6599712812        0.0136999417
 C          2.2683351487        2.3669100525       -0.0616049688
 O          2.3260980121        3.5120959832        0.4327241313
 H         -0.9947997586        0.2685560202        0.1487441222
 C         -1.3244331818        1.0749137794        0.7820408240
 C         -0.9501783444        2.3761315230        0.4769990977
 C         -1.3697750255        3.4063241729        1.3099187704
 C         -2.1367249105        3.1327555049        2.4292513624
 C         -2.4980610063        1.8335550721        2.7371564878
 C         -2.0874682167        0.7963033812        1.9055540570
 N         -2.4718839511       -0.5235194078        2.1600817032
 S         -1.6654052093       -1.8281443338        1.5010778142
 O         -2.1957927768       -2.9648477628        2.2285418820
 O         -0.2312762106       -1.6684973788        1.5733006418
 C         -2.2371539813       -1.9121344675       -0.1825032836
 C         -3.4699750232       -1.3828811232       -0.5080422778
 C         -3.9169300833       -1.4832358044       -1.8152849322
 C         -3.1323387258       -2.1136054755       -2.7682754896
 C         -1.9029153757       -2.6494920373       -2.4223652733
 C         -1.4490631767       -2.5500668680       -1.1174216258
 H         -0.4914868940       -2.9416544035       -0.8161960688
 H         -1.2897838406       -3.1363829628       -3.1636852853
 H         -3.4795916323       -2.1852567569       -3.7871588842
 H         -4.8723653251       -1.0637724610       -2.0872436557
 H         -4.0548570089       -0.8925151899        0.2526820596
 H         -2.8917361253       -0.7117346157        3.0568281679
 H         -3.0891394840        1.6197481518        3.6144150347
 H         -2.4513505919        3.9394114568        3.0739243302
 H         -1.0736663065        4.4209536610        1.0872075536
 C         -0.0863776049        2.6425293208       -0.7281069007
 H          0.2803407422        3.6786144225       -0.6504364149
 C         -0.8399128042        2.5287979904       -2.0465304581
 C         -2.1651997488        1.8509076337       -2.1977008230
 C         -2.0798527265        3.3441084935       -2.2696831775
 H         -2.2158818315        3.8294965031       -3.2241632135
 H         -2.4588167860        3.9060010447       -1.4290983216
 H         -2.6158571724        1.4042559364       -1.3258878110
 H         -2.3350393196        1.2904757073       -3.1040153916
 H         -0.1594737751        2.4395986439       -2.8873419933
 O          0.2509358230       -0.1306317380       -1.7470461039
