  62
        -98.94027609
 C         -2.8180578078       -0.9047400439        0.2223452039
 C         -2.4604102322       -0.1601295803       -0.9281465397
 C         -2.7940924940        1.2720526752       -0.8980434514
 C         -3.4728474262        1.7783068852        0.1484605466
 C         -3.9220153047        3.2003640407        0.3967691260
 C         -3.0486834426        4.3622274409       -0.0838121884
 C         -1.5962002871        4.3421042724        0.3893792352
 H         -1.1108595766        5.2412421749        0.0027270552
 H         -1.5723751068        4.3962655112        1.4806369271
 C         -0.7733980727        3.1260299303       -0.0405536944
 H          0.2791506499        3.3224208256        0.1891303083
 H         -1.0617427666        2.2546333740        0.5537672902
 C         -0.8612598746        2.7589272172       -1.5237436955
 H         -0.0607009324        2.0389999941       -1.7180551573
 H         -0.6638360193        3.6447013603       -2.1302673452
 C         -2.1937047821        2.1208173529       -1.9775978431
 H         -1.9818356360        1.4582083088       -2.8208009884
 H         -2.9051884306        2.8722893432       -2.3137716674
 H         -3.5094279066        5.2742999243        0.3049209736
 H         -3.0714155076        4.4318702460       -1.1676199656
 H         -4.9136018486        3.3102993574       -0.0549087819
 H         -4.0556575409        3.2767410865        1.4794231593
 O         -3.9121617786        0.9913613764        1.1719998803
 C         -3.5385369728       -0.3413865548        1.2714306464
 O         -3.9010681837       -0.9005129211        2.3267701907
 O         -1.8680391179       -0.6578670370       -1.9194302561
 C         -2.2973191942       -2.3215668722        0.3810944153
 C         -0.7932168670       -2.2953111391        0.2252613279
 C         -0.0792567149       -3.2425196080       -0.4961523905
 C          1.2911283474       -3.1184144066       -0.6527848289
 C          1.9777303294       -2.0514762217       -0.1030482196
 C          1.2751464271       -1.1052404943        0.6311833372
 C         -0.0909228388       -1.2467469543        0.8070094380
 H         -0.6310657782       -0.5014150257        1.3803463266
 N          1.9574329960       -0.0023744215        1.1839780532
 S          2.7708933121        0.9909683168        0.0922825971
 O          2.7882805482        2.2999578485        0.7090523686
 O          2.2055844995        0.9083483659       -1.2329242097
 C          4.4216183512        0.3241459763        0.0956185389
 C          4.9738716300       -0.1556225945       -1.0755354795
 C          6.2583550561       -0.6766416680       -1.0461153338
 C          6.9631902687       -0.7080576218        0.1474160114
 C          6.3947791607       -0.2199352518        1.3147866615
 C          5.1117165718        0.3027012328        1.2918546193
 H          4.6339059588        0.6959833762        2.1735828916
 H          6.9462317984       -0.2458148728        2.2407734418
 H          7.9617341569       -1.1151966619        0.1678496304
 H          6.7018276158       -1.0561351596       -1.9525921118
 H          4.3849476111       -0.1147793395       -1.9781078319
 H          1.3675968421        0.5670981266        1.7748235285
 H          3.0405201776       -1.9381654790       -0.2431321891
 H          1.8303592218       -3.8582150934       -1.2244868344
 H         -0.5989177113       -4.0691193606       -0.9524620179
 H         -2.5399986101       -2.6277629241        1.4094440390
 C         -2.9851937250       -3.2626903594       -0.5850617123
 C         -3.1790091654       -4.7052225458       -0.2281755799
 C         -4.3518765279       -3.7730087696       -0.2439097081
 H         -5.0791696440       -3.8679706940       -1.0360593471
 H         -4.7737748824       -3.4603619298        0.7003941610
 H         -3.1048939936       -5.4443451582       -1.0115438819
 H         -2.8109554054       -5.0376859403        0.7306708992
 H         -2.7874765229       -3.0090422692       -1.6202021910
