  62
        -98.94502781
 C         -2.5540441296       -0.1226545151        0.4308603712
 C         -2.3834527464        0.5492088060       -0.8033261425
 C         -2.1668626199        1.9997584164       -0.7185236931
 C         -2.1469585545        2.5948128297        0.4876634826
 C         -1.9364784088        4.0633874498        0.7173075219
 C         -0.4588975732        4.4050629454        0.9473717010
 C          0.4911026214        3.8234332119       -0.0999187256
 H          1.4906009584        4.1986935999        0.1329219784
 H          0.5322452246        2.7371416848        0.0102522195
 C          0.1414297257        4.1777275288       -1.5517977725
 H         -0.5081241525        5.0539576379       -1.5751246895
 H          1.0631650623        4.4422295949       -2.0742022202
 C         -0.5067848021        3.0404054818       -2.3440323217
 H          0.0688717732        2.1225666429       -2.1962642460
 H         -0.4598913782        3.2943006869       -3.4066114774
 C         -1.9742516885        2.7450624214       -2.0086368039
 H         -2.5485674574        3.6740837433       -2.0102558712
 H         -2.3719329433        2.0919884155       -2.7910428729
 H         -0.3604139249        5.4927057538        0.9663803023
 H         -0.1612290844        4.0187692471        1.9252852543
 H         -2.3160456920        4.6131403069       -0.1421493746
 H         -2.5063197189        4.3531568967        1.6023880393
 O         -2.3105002497        1.9148850164        1.6529371287
 C         -2.4913920707        0.5415079891        1.6538064595
 O         -2.5956925765        0.0360378986        2.7923852395
 H         -0.1843737141       -0.9036971099        0.5181522131
 C         -0.3200504330       -1.7839337526       -0.0934137030
 C         -1.5950515702       -2.3101494296       -0.2540434921
 C         -1.7468002005       -3.4544709197       -1.0264697875
 C         -0.6466788613       -4.0407679088       -1.6291334673
 C          0.6172343439       -3.5011603956       -1.4825124514
 C          0.7788634039       -2.3519208237       -0.7143417909
 N          2.0402274142       -1.7454303604       -0.5974768256
 S          2.3402495552       -0.6023028763        0.5973733742
 O          2.0962796874       -1.1637648283        1.9095454118
 O          1.6342030276        0.6106668953        0.2735879939
 C          4.0907395241       -0.3671870772        0.3567278510
 C          4.9810808427       -1.1278465981        1.0911572023
 C          6.3404254929       -0.9627419118        0.8771980927
 C          6.7842586785       -0.0455502374       -0.0636208003
 C          5.8790994450        0.7127438077       -0.7911489729
 C          4.5184591516        0.5521260304       -0.5820026746
 H          3.7774279989        1.1235808314       -1.1165826062
 H          6.2274169066        1.4277162923       -1.5189013872
 H          7.8424905495        0.0817787003       -0.2281771705
 H          7.0463436348       -1.5478698035        1.4442202823
 H          4.5899381297       -1.8188195255        1.8206355891
 H          2.8145327637       -2.3778599892       -0.7397216288
 H          1.4706874228       -3.9531032824       -1.9637892836
 H         -0.7773608441       -4.9307895084       -2.2258810338
 H         -2.7258545538       -3.8853557160       -1.1586408783
 C         -2.7457173374       -1.6275294642        0.4473693734
 H         -2.7225640331       -1.9263124032        1.5069911754
 C         -4.0977501416       -1.9912434886       -0.1334338149
 C         -4.8516265698       -3.1798896924        0.3806038599
 C         -5.3202759030       -1.7955149987        0.7102303885
 H         -6.2188257226       -1.4257697174        0.2397689197
 H         -5.1704374877       -1.4277951411        1.7153478756
 H         -4.3958533864       -3.7589129385        1.1697291365
 H         -5.4341452621       -3.7621322379       -0.3174306361
 H         -4.1717618384       -1.7507812759       -1.1878316873
 O         -2.4222945446       -0.0313779192       -1.9201576780
