  62
        -98.93758684
 C          1.4421395979        1.6212321090       -0.0992363800
 C          1.3138202585        0.3027680990        0.4012588641
 C          2.5698466759       -0.3670301695        0.7968112890
 C          3.7324899331        0.2979377011        0.6978970268
 C          5.1123272131       -0.2295949790        0.9775082369
 C          5.7570863658       -0.7643435588       -0.3126570745
 C          5.4391944571       -2.2239646800       -0.6358632215
 H          5.8446901047       -2.4311188823       -1.6290171600
 H          5.9638132142       -2.8692082076        0.0720442786
 C          3.9529658244       -2.5925069868       -0.6246529177
 H          3.3757718655       -1.8092373261       -1.1192334143
 H          3.8326827981       -3.5038958288       -1.2135551416
 C          3.4021650782       -2.8374857243        0.7879126616
 H          4.2380740962       -2.9347557397        1.4807115061
 H          2.8731900099       -3.7922697645        0.8070668585
 C          2.4219724159       -1.7739819057        1.3075404311
 H          1.3987443600       -2.0548071804        1.0396852665
 H          2.4656148745       -1.7527745737        2.4012865412
 H          5.4341580769       -0.1250064592       -1.1385947902
 H          6.8414429562       -0.6653139253       -0.2299539440
 H          5.7036773112        0.6144875768        1.3384993100
 H          5.0838902207       -0.9938059386        1.7486146810
 O          3.8047888594        1.5850550210        0.2580631284
 C          2.6753868037        2.2758319025       -0.1406741614
 O          2.8935351649        3.4509482451       -0.4986069364
 H         -2.1649424876        1.0930832014       -0.9079411497
 C         -2.0495264044        1.5189812718        0.0738610552
 C         -0.9057364240        2.2276067874        0.4043891683
 C         -0.7924753455        2.7563903676        1.6871845904
 C         -1.7955760053        2.5692439370        2.6184709443
 C         -2.9271976649        1.8432124370        2.2922876207
 C         -3.0501663306        1.3139438592        1.0127961253
 N         -4.1922626804        0.5864041952        0.6563452526
 S         -4.1745256027       -0.5951967024       -0.5174794793
 O         -4.0501311225        0.0049136220       -1.8234439890
 O         -5.4048711982       -1.3252523263       -0.2844497740
 C         -2.7961807478       -1.6796754970       -0.1970656820
 C         -1.9654556155       -2.0339298071       -1.2380590300
 C         -0.9428265930       -2.9375873719       -1.0042546271
 C         -0.7706602630       -3.4692945538        0.2627783804
 C         -1.6102079796       -3.0985347974        1.3009697718
 C         -2.6356067459       -2.1974699532        1.0714334989
 H         -3.3059055807       -1.8966478490        1.8604230447
 H         -1.4636553371       -3.5049663422        2.2891213911
 H          0.0258065955       -4.1750259872        0.4430310717
 H         -0.2803428487       -3.2168228523       -1.8086385073
 H         -2.1301910820       -1.5925012126       -2.2080539837
 H         -4.8210915238        0.3640540557        1.4128850171
 H         -3.7077205997        1.6851392870        3.0208412509
 H         -1.6929447287        2.9834610543        3.6102754828
 H          0.1016253780        3.3070872527        1.9476413836
 C          0.2350083359        2.4197246019       -0.5625415137
 H          0.5510553895        3.4749106622       -0.5133235423
 C         -0.1620187365        2.1497504093       -2.0063605803
 C          0.8754200722        1.8632176754       -3.0493310625
 C         -0.0743617931        0.7869769321       -2.6214589459
 H         -0.8556880079        0.4891682822       -3.3061383345
 H          0.2976057459       -0.0168276357       -2.0056323420
 H          0.7537778855        2.3013000714       -4.0285867079
 H          1.9040566025        1.7993615370       -2.7251053252
 H         -0.9986105770        2.7685583910       -2.3180426920
 O          0.2193933542       -0.3042485299        0.5135922988
