  62
        -98.93972004
 C          2.3723401054        1.2473611521       -0.0290676470
 C          3.0043434190        0.3769990002        0.8876255712
 C          3.5753024067       -0.8635107458        0.3380991336
 C          3.4410553281       -1.1266062296       -0.9755346644
 C          3.9409200243       -2.2872658786       -1.8098023079
 C          4.3722359553       -3.5949334122       -1.1500058311
 C          3.2515681039       -4.3602609923       -0.4477542463
 H          3.6905297890       -5.2315726944        0.0434068264
 H          2.5477249395       -4.7217839860       -1.2017709401
 C          2.4515409849       -3.5642111472        0.5810574383
 H          1.7092697094       -4.2366579566        1.0212341596
 H          1.8938570302       -2.7691664618        0.0790971816
 C          3.2708145006       -2.9613453674        1.7217099359
 H          3.8660272253       -3.7429126547        2.1975276612
 H          2.5645281441       -2.5806490450        2.4648776305
 C          4.2027189620       -1.7996159217        1.3302691752
 H          5.1581533413       -2.1642917316        0.9613081355
 H          4.4002372866       -1.2087843850        2.2293992899
 H          5.1963546843       -3.4197065609       -0.4648861703
 H          4.7548785383       -4.2337741285       -1.9505340525
 H          4.7849136272       -1.8984347182       -2.3903434073
 H          3.1415396066       -2.4962720225       -2.5279236519
 O          2.8096815619       -0.2614340686       -1.8209217945
 C          2.2401978178        0.9214508869       -1.3780431717
 O          1.6672970276        1.5769904454       -2.2676977977
 O          3.0867907653        0.6224510612        2.1228460043
 C          1.7150711774        2.5138531647        0.4942390662
 C          0.2207570550        2.3505988196        0.3595769341
 C         -0.5970373208        3.2082686656       -0.3622112060
 C         -1.9498484380        2.9404001014       -0.4915266448
 C         -2.5135460048        1.8208381793        0.0924620705
 C         -1.7046644596        0.9621488963        0.8259222223
 C         -0.3552525945        1.2368946279        0.9606915273
 H          0.2748525638        0.5608967986        1.5267032575
 N         -2.2691849079       -0.1946584419        1.4124937038
 S         -2.7628871438       -1.3643174928        0.3024265983
 O         -2.7636532910       -2.6121604092        1.0355558349
 O         -1.9575389591       -1.3259871548       -0.8980949546
 C         -4.4411445278       -0.9004286552       -0.0637513454
 C         -5.3607177578       -0.9241345254        0.9669159338
 C         -6.6708754881       -0.5590988113        0.7020547384
 C         -7.0368376617       -0.1809504895       -0.5814694236
 C         -6.1019355119       -0.1651082336       -1.6053835140
 C         -4.7888719963       -0.5276786672       -1.3470013045
 H         -4.0248173579       -0.5240551427       -2.1081411066
 H         -6.3879676778        0.1293558222       -2.6023625092
 H         -8.0570761672        0.1031391949       -0.7855866230
 H         -7.4008153875       -0.5699627392        1.4952973643
 H         -5.0331719136       -1.2296682691        1.9465225820
 H         -1.6472619888       -0.6294557175        2.0811963116
 H         -3.5644837465        1.6061334740       -0.0137548152
 H         -2.5728911309        3.6117403861       -1.0624135020
 H         -0.1730888269        4.0771733778       -0.8377172761
 H          1.9603905464        2.5483843087        1.5658663278
 C          2.2683885897        3.7511280726       -0.1759954106
 C          2.1647335340        5.0794761923        0.5104113812
 C          3.4940687527        4.3983716877        0.3931848480
 H          4.2256425447        4.8040772887       -0.2891897492
 H          3.9238102328        3.9560323814        1.2801497399
 H          1.9850123514        5.9576265098       -0.0907736862
 H          1.6916913392        5.1038678377        1.4803435021
 H          2.1750140689        3.7209746974       -1.2551507772
