  62
        -98.94025224
 C          2.4851767986        1.1227593337        0.0487562684
 C          2.6664039763        0.0160515642       -0.8150687975
 C          4.0548177043       -0.4341377648       -0.9920218159
 C          5.0470397241        0.2230324683       -0.3641069459
 C          6.4962951296       -0.1642173528       -0.4109921740
 C          6.8528672357       -1.1175581125        0.7383878596
 C          5.8888926381       -2.2948383565        0.8862747270
 H          6.2555384040       -2.9138351232        1.7079850075
 H          4.9070219529       -1.9176005797        1.1815187501
 C          5.7402019979       -3.1561970527       -0.3755967769
 H          6.5765431574       -2.9716395299       -1.0507246839
 H          5.7817009738       -4.2087493314       -0.0877776647
 C          4.4255682242       -2.9529309398       -1.1312458908
 H          3.5848699208       -3.0432053398       -0.4384298410
 H          4.3294011929       -3.7546017965       -1.8683253275
 C          4.2871249925       -1.6224759582       -1.8820481978
 H          5.1606500820       -1.4647552574       -2.5178245106
 H          3.4027914613       -1.6927391216       -2.5222118728
 H          7.8649859959       -1.4919476477        0.5748178420
 H          6.8466146508       -0.5508019791        1.6722892686
 H          6.7099346097       -0.6357178401       -1.3681180059
 H          7.0973855743        0.7419445727       -0.3196605777
 O          4.8342003242        1.2987251740        0.4371340773
 C          3.5523206330        1.7658757264        0.6748839150
 O          3.4943699084        2.7414578675        1.4510018267
 H         -1.4619722931        0.8853357869       -0.4543287930
 C         -1.0624851337        0.3005694143        0.3570974869
 C          0.2061572831        0.5509219354        0.8538485050
 C          0.6751325478       -0.2303856177        1.9075827632
 C         -0.1011653117       -1.2417301680        2.4380628498
 C         -1.3695834722       -1.4862741516        1.9413673896
 C         -1.8486473749       -0.7110904402        0.8927631729
 N         -3.1214378073       -0.9502005296        0.3507809868
 S         -4.0290578368        0.3625718278       -0.1976179610
 O         -3.6261321201        0.6872909380       -1.5424805403
 O         -3.9726909899        1.4396549548        0.7651071249
 C         -5.6578476379       -0.3644355508       -0.2169777537
 C         -6.5010547604       -0.1669735059        0.8602457232
 C         -7.7530085808       -0.7616727443        0.8496255670
 C         -8.1373265479       -1.5419513725       -0.2304722082
 C         -7.2804173141       -1.7305134953       -1.3048099461
 C         -6.0277716804       -1.1377935284       -1.3012014840
 H         -5.3318636808       -1.2486290669       -2.1164939737
 H         -7.5836656445       -2.3356039344       -2.1439410309
 H         -9.1119760789       -2.0038154615       -0.2364949495
 H         -8.4226352725       -0.6142947597        1.6815850039
 H         -6.1629244624        0.4549184597        1.6734678042
 H         -3.6768857765       -1.5811883278        0.9119641739
 H         -1.9781305413       -2.2752344898        2.3565825502
 H          0.2801692283       -1.8411805294        3.2512661689
 H          1.6632440267       -0.0326714594        2.3020770880
 C          1.0874756200        1.6510424088        0.3135899413
 H          1.1922089817        2.4167454655        1.0972381374
 C          0.5338859487        2.3084704854       -0.9332125171
 C         -0.4812659956        3.4045183123       -0.8210909578
 C          0.9202599954        3.7212943937       -1.2467480643
 H          1.0986979078        3.9909891016       -2.2767976375
 H          1.5678884601        4.2245284007       -0.5433373212
 H         -0.7933304354        3.6974837009        0.1704406337
 H         -1.2713229193        3.4506421237       -1.5561826042
 H          0.4456131179        1.6173239471       -1.7643950818
 O          1.7209052792       -0.5683605165       -1.4059895689
