  62
        -98.94638533
 C          1.5923547141        1.0747576642        0.0508710907
 C          2.6706271964        0.8278217249        0.9377157006
 C          3.3933477055       -0.4351083228        0.7405932321
 C          2.9741092235       -1.2902033999       -0.2097665218
 C          3.6369621593       -2.5952306934       -0.5406970574
 C          4.6922849282       -2.4185233642       -1.6416240887
 C          5.6621904488       -1.2642772648       -1.3888864003
 H          6.3775103745       -1.2541504712       -2.2142027384
 H          5.1129773520       -0.3207765313       -1.4291552283
 C          6.4204388071       -1.3516945787       -0.0569803955
 H          6.3765933422       -2.3710029397        0.3284170422
 H          7.4720852274       -1.1189470912       -0.2372900769
 C          5.9279084812       -0.3815458205        1.0186241277
 H          6.6620491814       -0.3713934105        1.8286576221
 H          5.8829363695        0.6298033655        0.6064757529
 C          4.5648220841       -0.7108593788        1.6403996741
 H          4.5566479355       -1.7486271868        1.9794244114
 H          4.4320234328       -0.0637707416        2.5123155197
 H          4.1788993636       -2.2322732365       -2.5878450069
 H          5.2513388922       -3.3511536180       -1.7370134331
 H          4.0989166030       -3.0000485731        0.3575324219
 H          2.8745757326       -3.2925265930       -0.8918865935
 O          1.9145439727       -1.0357789521       -1.0176264488
 C          1.2105594769        0.1575811893       -0.9281463208
 O          0.2923268664        0.2640746704       -1.7628125881
 H         -1.5047966355        2.0747395701       -1.2356878429
 C         -1.6376768852        1.8271956150       -0.1948921348
 C         -0.5812040254        1.9653925239        0.6908685505
 C         -0.7801960845        1.6189000048        2.0249483822
 C         -2.0047461733        1.1464041604        2.4580808170
 C         -3.0500618488        0.9826965338        1.5649798717
 C         -2.8554360735        1.3143429641        0.2312529436
 N         -3.8904370440        1.0941827866       -0.6956789538
 S         -4.6672228516       -0.3861386098       -0.6113005175
 O         -5.0865872310       -0.6782098141       -1.9648478937
 O         -5.7302492919       -0.3097847247        0.3618395001
 C         -3.4521337734       -1.5760101123       -0.0612450558
 C         -3.7760638369       -2.4249095413        0.9785077933
 C         -2.8434979765       -3.3575049234        1.4024163571
 C         -1.6033958391       -3.4224807033        0.7859197242
 C         -1.2941471302       -2.5640108048       -0.2571540367
 C         -2.2249062347       -1.6336286719       -0.6909462011
 H         -1.9786245958       -0.9548553186       -1.4921726591
 H         -0.3277789628       -2.5958912595       -0.7360289437
 H         -0.8727567650       -4.1427167711        1.1193190011
 H         -3.0835665449       -4.0263399630        2.2131992268
 H         -4.7473974346       -2.3324218336        1.4369215310
 H         -3.6225485478        1.2989329397       -1.6478227328
 H         -4.0069095512        0.5969781121        1.8782602195
 H         -2.1455119392        0.8889690345        3.4966617117
 H          0.0463563459        1.7108235216        2.7155547982
 C          0.7987183032        2.3596875560        0.2287643509
 H          1.2970578542        2.9021544571        1.0429071226
 C          0.8166114907        3.2206381765       -1.0160717144
 C          0.3775688013        4.6507807706       -0.9263862963
 C          1.8252642008        4.3224473300       -1.1303626727
 H          2.2679652126        4.5169151851       -2.0958728856
 H          2.5041683577        4.4668289518       -0.3027647229
 H         -0.1752619933        5.0748129441       -1.7507704226
 H          0.0719290705        5.0169654529        0.0419660752
 H          0.5824418105        2.6741946505       -1.9217457065
 O          3.0108462328        1.6269803464        1.8497769918
