  62
        -98.94878442
 C         -0.9358594417       -1.2924834754        0.0435105191
 C         -1.9055391367       -1.0414779236        1.0409996325
 C         -2.6343796131        0.2278471574        0.9235795805
 C         -2.3226246544        1.0734590168       -0.0756086193
 C         -3.0148541848        2.3798353722       -0.3355729023
 C         -4.1910314890        2.2026935108       -1.3058300024
 C         -5.1340524557        1.0607445265       -0.9274356680
 H         -5.9425627200        1.0489281568       -1.6614245033
 H         -4.6003105205        0.1122794217       -1.0201694578
 C         -5.7275883832        1.1695838875        0.4840287519
 H         -6.7954334716        0.9465255880        0.4337957503
 H         -5.6274381356        2.1915721027        0.8514573723
 C         -5.1198918717        0.2044144724        1.5037999063
 H         -5.1348474935       -0.8115243286        1.1010084501
 H         -5.7504465546        0.2113251579        2.3969724877
 C         -3.6878450490        0.5212878709        1.9542709092
 H         -3.6250933637        1.5603521303        2.2855854725
 H         -3.4570130728       -0.1218111772        2.8090645943
 H         -4.7493974461        3.1396981113       -1.3464357040
 H         -3.7905858227        1.9998972907       -2.3014921620
 H         -3.3664548921        2.7913908159        0.6087509643
 H         -2.2933658063        3.0716218968       -0.7728199326
 O         -1.3669524947        0.8096105048       -1.0015813084
 C         -0.6471659316       -0.3753278209       -0.9673258296
 O          0.2011842117       -0.4900817650       -1.8704880518
 H          1.0842560436       -0.4985213059        1.2792387773
 C          1.7933044833       -1.1712432505        0.8195068114
 C          1.3431742090       -2.3046341197        0.1560120937
 C          2.2845661589       -3.1600372343       -0.4052925192
 C          3.6355851316       -2.8759576931       -0.3126155422
 C          4.0769618446       -1.7302150220        0.3235091232
 C          3.1434676324       -0.8703290428        0.8909228559
 N          3.5479941369        0.3067961633        1.5419779145
 S          2.6450812981        1.7005211704        1.4038708582
 O          3.5593504389        2.7503803219        1.8086056083
 O          1.4364573170        1.6021665347        2.1860794590
 C          2.2421498607        1.9298259537       -0.3191440741
 C          1.0915553359        2.6305055603       -0.6153015176
 C          0.7838042350        2.8915165052       -1.9398471542
 C          1.6261834710        2.4437626324       -2.9435421454
 C          2.7790081317        1.7430119632       -2.6308660840
 C          3.0979239017        1.4885004595       -1.3073256731
 H          3.9901529071        0.9423623787       -1.0487122695
 H          3.4283446101        1.3866119320       -3.4142081802
 H          1.3770124611        2.6351971783       -3.9753562495
 H         -0.1177346608        3.4300547866       -2.1854073249
 H          0.4523294041        2.9409784147        0.1971623372
 H          4.5378017783        0.5023810421        1.5047299096
 H          5.1301363432       -1.5016349462        0.3845494803
 H          4.3547661694       -3.5499387788       -0.7522292784
 H          1.9580533526       -4.0501692325       -0.9176453920
 C         -0.1393508092       -2.5806614631        0.0956975493
 H         -0.4348122675       -3.0716354754        1.0360104380
 C         -0.5243736067       -3.4796906494       -1.0637099223
 C         -0.5679930716       -4.9686367205       -0.8971624633
 C         -1.8427273552       -4.1906112553       -1.0167238245
 H         -2.4185370887       -4.2733122469       -1.9262841571
 H         -2.4448540083       -4.0540688742       -0.1299921682
 H         -0.3144072490       -5.3731016553        0.0712218286
 H         -0.2701938247       -5.5894655939       -1.7287832113
 H         -0.2060192055       -3.0783317490       -2.0193587076
 O         -2.1491667761       -1.8417919759        1.9863913674
