  62
        -98.93539757
 C          2.2995690951        1.1237945710        0.3796151987
 C          2.5388339292        0.0259843721       -0.4810390612
 C          3.5805258469       -0.9188199427       -0.0481313805
 C          4.2180789626       -0.7303663442        1.1203136252
 C          5.2573155778       -1.6273832168        1.7388987943
 C          6.5918471777       -1.7521752865        0.9786617824
 C          6.6653289738       -2.9481554685        0.0213470875
 H          7.6626651210       -3.3879752737        0.0854207695
 H          5.9642500816       -3.7122411331        0.3594653021
 C          6.4091184229       -2.6371918033       -1.4564883109
 H          7.3055066985       -2.1843520061       -1.8863949753
 H          6.2398596279       -3.5843447053       -1.9733640250
 C          5.2383000189       -1.6983005576       -1.7475959941
 H          5.0451798495       -1.7168803342       -2.8221825572
 H          5.5215411394       -0.6716237460       -1.5035620258
 C          3.9405298950       -2.0336921773       -0.9871944736
 H          3.1114943237       -2.1316651627       -1.6909036957
 H          4.0434952037       -2.9726138346       -0.4453026730
 H          6.7955742304       -0.8237068112        0.4459033876
 H          7.3732920124       -1.8708540965        1.7308848757
 H          5.4494949412       -1.2073578359        2.7282734819
 H          4.8251601572       -2.6211581668        1.8765424096
 O          3.9453558635        0.3273730926        1.9311973070
 C          3.0063384221        1.2778150990        1.5780129099
 O          2.8882765154        2.2060367805        2.4024107742
 H         -0.1476385547        0.2085878757       -1.0269920060
 C         -0.7152646200        0.7354537848       -0.2741119079
 C         -0.1223533261        1.7879433917        0.4083915094
 C         -0.8630604750        2.4502828793        1.3802998136
 C         -2.1626608488        2.0651935835        1.6593100141
 C         -2.7479659750        1.0116139678        0.9801597893
 C         -2.0155775014        0.3417374910        0.0088968722
 N         -2.5876570637       -0.7477960364       -0.6703077164
 S         -4.1089174026       -0.5564771387       -1.3509556254
 O         -4.1786337277       -1.5377551109       -2.4115903013
 O         -4.3533646082        0.8163314690       -1.7292383998
 C         -5.2224768775       -1.0361910104       -0.0466037215
 C         -5.0468122713       -2.2761657222        0.5357555941
 C         -5.9108453495       -2.6697168208        1.5450282215
 C         -6.9320517777       -1.8230631746        1.9503752406
 C         -7.0974405619       -0.5828357380        1.3532337352
 C         -6.2357602850       -0.1827204968        0.3436090889
 H         -6.3221501227        0.7744237675       -0.1456023451
 H         -7.8920713709        0.0735751280        1.6696680526
 H         -7.6028320646       -2.1321287016        2.7364256034
 H         -5.7851899292       -3.6333453446        2.0120016618
 H         -4.2428757511       -2.9045620846        0.1900916982
 H         -1.9540585180       -1.1872811882       -1.3228018668
 H         -3.7594333775        0.7069919804        1.1942819013
 H         -2.7259163329        2.5892421134        2.4163229383
 H         -0.4087294413        3.2654864609        1.9246059698
 C          1.2879794269        2.2209813966        0.0835647852
 H          1.5459639008        3.0464682189        0.7603045512
 C          1.3735487274        2.7311179659       -1.3428883807
 C          0.8498205446        4.0983851316       -1.6580205202
 C          2.3261100231        3.8393339021       -1.6704211662
 H          2.8399190072        3.8131841076       -2.6196750923
 H          2.9209788033        4.2414678550       -0.8629877735
 H          0.4443052725        4.6788015380       -0.8431145995
 H          0.3447143522        4.2514758821       -2.5994806759
 H          1.2389597897        1.9569645874       -2.0867864810
 O          1.9232979997       -0.1879525944       -1.5611317005
