  62
        -98.93451854
 C         -2.0274085454       -1.2205601448       -0.0016713986
 C         -2.3823423323       -0.0002885325       -0.6244013362
 C         -3.8092730000        0.3796033568       -0.5623107306
 C         -4.6852720466       -0.4147405528        0.0787304760
 C         -6.1861069662       -0.3131537262        0.2551931369
 C         -6.9233388201        0.9873053615       -0.0525643716
 C         -6.6032360952        2.1424932156        0.8956813494
 H         -7.0287160928        1.9146071961        1.8762953880
 H         -7.0977847593        3.0407725190        0.5196902346
 C         -5.1191142537        2.4392888834        1.0963813941
 H         -4.6320676945        1.5795214111        1.5611378259
 H         -5.0368011820        3.2728845346        1.7991969516
 C         -4.3508988085        2.8213752002       -0.1672522282
 H         -3.3551647295        3.1530100883        0.1402558378
 H         -4.8457791559        3.6617390113       -0.6582093199
 C         -4.1636725109        1.6937130004       -1.1966553605
 H         -3.3194267749        1.9628164768       -1.8384480376
 H         -5.0386080325        1.5905787024       -1.8342478891
 H         -7.9907198209        0.7695248964        0.0418513433
 H         -6.7533315992        1.2819974178       -1.0839514546
 H         -6.3833345187       -0.5990502108        1.2933188553
 H         -6.6116167089       -1.1075232009       -0.3682188751
 O         -4.2900514594       -1.5733319321        0.6841179695
 C         -2.9726398174       -1.9918463297        0.6780925963
 O         -2.7711969447       -3.0495950111        1.3070278868
 O         -1.5668451335        0.7469587998       -1.2230413704
 C         -0.5975429946       -1.7353956845        0.0255492044
 C          0.3467521816       -0.6231957535        0.4069077490
 C          0.3416847921       -0.1577453263        1.7184008661
 C          1.1817828481        0.8678088227        2.1096434555
 C          2.0458034362        1.4514545863        1.2001757010
 C          2.0557974908        0.9963611774       -0.1112481836
 C          1.2198361682       -0.0423898286       -0.4990920287
 H          1.2219262771       -0.3700637605       -1.5268543204
 N          2.9331216467        1.5873355452       -1.0394477630
 S          4.5497814429        1.6748521081       -0.6186037970
 O          4.7515579499        2.7510818105        0.3185169581
 O          5.2671108691        1.7786638908       -1.8695041954
 C          4.8851535829        0.1101568179        0.1694640755
 C          4.9210842417       -1.0200788748       -0.6233445196
 C          5.1098247393       -2.2543115473       -0.0237341399
 C          5.2507782803       -2.3375485453        1.3533040108
 C          5.2143572193       -1.1935822400        2.1349965300
 C          5.0278086709        0.0442035115        1.5402103812
 H          4.9958610221        0.9573062557        2.1113007291
 H          5.3261756414       -1.2616829329        3.2051193761
 H          5.3913297072       -3.3003234716        1.8188795270
 H          5.1417850294       -3.1459406485       -0.6292447077
 H          4.8153872949       -0.9152821923       -1.6912905661
 H          2.8209163030        1.2389784398       -1.9801231783
 H          2.7021631426        2.2590248949        1.4816460760
 H          1.1618171641        1.2198906203        3.1299716038
 H         -0.3403106553       -0.6069749979        2.4278031446
 H         -0.5845203251       -2.4796135893        0.8381540922
 C         -0.1730552283       -2.4706825027       -1.2373367042
 C         -1.1520530905       -3.3168744161       -1.9936176998
 C         -0.6173636654       -2.0595871417       -2.6076742669
 H          0.0871602492       -2.1496373700       -3.4221676559
 H         -1.2719894855       -1.2066251916       -2.6911375102
 H         -0.8177269474       -4.2657978785       -2.3849749484
 H         -2.1757159975       -3.3236545113       -1.6481083349
 H          0.8354090452       -2.8640365156       -1.1505974535
