  62
        -98.94053639
 C          2.1816420800        1.1251117194        0.4127507249
 C          2.4593996021        0.2393918066       -0.6568822733
 C          3.2617160526       -0.9438520220       -0.3137806400
 C          3.6260189647       -1.1675394954        0.9608921079
 C          4.4023245786       -2.3517008753        1.4696356069
 C          5.9237413360       -2.2158798083        1.3189238669
 C          6.4494633358       -2.3429182451       -0.1113636538
 H          7.5341733700       -2.4476392806       -0.0457961692
 H          6.0604254624       -3.2576031775       -0.5597980910
 C          6.1225945973       -1.1451061056       -1.0139379447
 H          5.8344484631       -0.2917691282       -0.3957088765
 H          7.0168785980       -0.8519234171       -1.5682564026
 C          5.0198044381       -1.4070842365       -2.0396593789
 H          5.3500355508       -2.1719878341       -2.7458993548
 H          4.8453279505       -0.4847565111       -2.5995566416
 C          3.6834677885       -1.8513053986       -1.4303145981
 H          2.9166298032       -1.8011770222       -2.2075566244
 H          3.7533730216       -2.8802605326       -1.0776331754
 H          6.2311368553       -1.2545136273        1.7367245620
 H          6.3813421957       -3.0026164297        1.9229831948
 H          4.1673493650       -2.4412564322        2.5325021126
 H          4.0633812693       -3.2560471240        0.9630202078
 O          3.2955377007       -0.3197224645        1.9707942602
 C          2.5895887869        0.8438599797        1.7206044339
 O          2.3880413021        1.5446392228        2.7323172212
 H         -0.0657960880        0.7327226351       -1.2711921124
 C         -0.6689835184        1.1846081297       -0.4967493844
 C         -0.0835932086        2.1018053940        0.3666736359
 C         -0.8659865514        2.6686021945        1.3645952536
 C         -2.2004274580        2.3223952220        1.4930464812
 C         -2.7781238465        1.4055638301        0.6330300060
 C         -2.0019575370        0.8307584629       -0.3651830668
 N         -2.5791291664       -0.1194935628       -1.2358991113
 S         -3.1123677754       -1.5350084531       -0.4952960276
 O         -2.3475606427       -1.8259732994        0.6970755625
 O         -3.0973809652       -2.5437698918       -1.5323241470
 C         -4.8011652275       -1.1700632512       -0.0655557008
 C         -5.2035157751       -1.2250866052        1.2543503664
 C         -6.5241023743       -0.9384580368        1.5642083374
 C         -7.4130800096       -0.6040134739        0.5540840848
 C         -6.9931628617       -0.5552061830       -0.7671018715
 C         -5.6749829041       -0.8418099888       -1.0838753121
 H         -5.3074336327       -0.8203991961       -2.0961751129
 H         -7.6875955589       -0.2948142973       -1.5494992063
 H         -8.4395563230       -0.3804448380        0.7983066331
 H         -6.8520684512       -0.9761475866        2.5905999030
 H         -4.4741419750       -1.4836081115        2.0054361283
 H         -1.9651393321       -0.3592431908       -2.0031079000
 H         -3.8152166902        1.1288263798        0.7316276720
 H         -2.7961412632        2.7685134851        2.2746411801
 H         -0.4156002225        3.3668405727        2.0548833815
 C          1.3861509918        2.4125762737        0.2473927890
 H          1.6659443293        3.0342992276        1.1117151822
 C          1.7549786525        3.1821923769       -1.0146608841
 C          0.7753990524        3.5226212079       -2.0948879626
 C          1.2821446473        4.5961787659       -1.1830625199
 H          1.9705201804        5.3306354343       -1.5727228377
 H          0.6005534890        4.9794423866       -0.4385024973
 H          1.1289077820        3.4952858142       -3.1145259434
 H         -0.2480748303        3.2015384748       -1.9809627583
 H          2.7675079225        2.9697591720       -1.3407321522
 O          2.0659886788        0.4023570813       -1.8420871520
