  62
        -98.94443308
 C          1.9351574312       -0.8569050576       -0.0619978199
 C          2.4040350587        0.4711047005       -0.2054819341
 C          3.8206692231        0.6073213238       -0.5694600999
 C          4.5711963933       -0.4914627095       -0.7680701429
 C          6.0231591666       -0.5136197972       -1.1624625971
 C          6.9925181243       -0.3631273134        0.0179799025
 C          7.0643690046        1.0379325605        0.6264707775
 H          7.2450275406        1.7674294935       -0.1636228256
 H          7.9312946557        1.0549969349        1.2899886769
 C          5.8209546394        1.4442342843        1.4298547849
 H          6.1295151523        1.8931781519        2.3767366813
 H          5.2369211102        0.5537970181        1.6738660611
 C          4.9127264734        2.4525378725        0.7258116572
 H          5.4453358323        3.3972768350        0.5952741572
 H          4.0471427256        2.6404164975        1.3664399971
 C          4.3962792339        1.9892837005       -0.6427123024
 H          5.1970350565        2.0309508069       -1.3808282009
 H          3.5958922813        2.6651655293       -0.9542433653
 H          7.9885039996       -0.6305495852       -0.3423943406
 H          6.7149163924       -1.0824075722        0.7918810503
 H          6.2023872137       -1.4826709092       -1.6330951519
 H          6.2160561539        0.2699759574       -1.8956553833
 O          4.0726713398       -1.7508428528       -0.6479734051
 C          2.7551631041       -1.9646164621       -0.2768349848
 O          2.4354303242       -3.1671901019       -0.1837409105
 H         -1.5657322997        0.7032013413        0.7701835363
 C         -1.4318723565        0.4305384465       -0.2625110144
 C         -0.4408872576       -0.4607350968       -0.6401789474
 C         -0.2970694795       -0.7657048793       -1.9921444386
 C         -1.1098297760       -0.1769503049       -2.9400684559
 C         -2.0929148359        0.7204728129       -2.5597891170
 C         -2.2500721848        1.0270502800       -1.2141960639
 N         -3.2261960717        1.9498328780       -0.8070982739
 S         -4.1846681940        1.6588701851        0.5291009247
 O         -5.2737198363        2.6019716672        0.4022583374
 O         -3.4074475455        1.7417000224        1.7384913139
 C         -4.7898309456       -0.0010640302        0.2878085867
 C         -4.1687389387       -1.0573191898        0.9220301136
 C         -4.6150525790       -2.3450155492        0.6688832209
 C         -5.6671347349       -2.5529611162       -0.2092797967
 C         -6.2836038125       -1.4801056112       -0.8356797469
 C         -5.8398378913       -0.1913135433       -0.5896835745
 H         -6.2991182821        0.6702076762       -1.0466989725
 H         -7.1049396355       -1.6450316790       -1.5142612224
 H         -6.0101314487       -3.5569839126       -0.4034492948
 H         -4.1383228988       -3.1799497817        1.1574040114
 H         -3.3572782231       -0.8567764103        1.6016486129
 H         -3.7702179061        2.3419143295       -1.5614708430
 H         -2.7230617423        1.1901203944       -3.2997185856
 H         -0.9795666736       -0.4175988673       -3.9844097747
 H          0.4745050461       -1.4639086218       -2.2879335016
 C          0.4950206459       -1.1144792784        0.3464805959
 H          0.3537345797       -2.2033444432        0.2840870657
 C          0.2783370103       -0.6777932669        1.7799124760
 C         -0.7336581299       -1.3754830872        2.6361150135
 C          0.7297215423       -1.5790571413        2.8881683506
 H          1.1715277615       -1.1342868980        3.7672960856
 H          1.1705006997       -2.5251247033        2.6083640503
 H         -1.2806970377       -2.1938898816        2.1924897034
 H         -1.3021393957       -0.7893599454        3.3434515073
 H          0.4188747533        0.3881062737        1.9209823732
 O          1.6833959857        1.4897802411       -0.0421826754
