  62
        -98.93928030
 C         -1.4857441505       -0.8176067801       -0.4596005690
 C         -2.7920241406       -1.3542671797       -0.4646541386
 C         -3.9023016803       -0.3847752094       -0.4693900398
 C         -3.6276967399        0.9333376905       -0.4632787912
 C         -4.5400750295        2.1414173707       -0.5160642826
 C         -6.0377094496        2.0032369115       -0.2560934027
 C         -6.4044761699        1.6260154031        1.1787968977
 H         -6.1747492797        2.4730578138        1.8301625868
 H         -7.4824331200        1.4559039035        1.2230124377
 C         -5.6848590704        0.4036024635        1.7431193991
 H         -4.6120565303        0.6006311433        1.7942271290
 H         -6.0336124305        0.2542643748        2.7686903292
 C         -5.9143770807       -0.8999859472        0.9807774105
 H         -5.4803041210       -1.7092629167        1.5744328414
 H         -6.9857333007       -1.0902435370        0.8915465006
 C         -5.2854613105       -0.9675427889       -0.4218582893
 H         -5.9264049703       -0.5001536396       -1.1656362299
 H         -5.1830109308       -2.0220580493       -0.6946732782
 H         -6.4810021293        2.9811601214       -0.4629993038
 H         -6.4798598397        1.3035366808       -0.9592033320
 H         -4.4013172393        2.5730512896       -1.5134408931
 H         -4.1196376494        2.8623211614        0.1921226766
 O         -2.3455679598        1.4030670801       -0.4558530316
 C         -1.2487992000        0.5559226298       -0.4418528005
 O         -0.1497871699        1.1365618495       -0.4143458310
 O         -3.0264459510       -2.5935028097       -0.4678069473
 C         -0.2932354407       -1.7556472205       -0.4649115678
 C          0.5927841092       -1.4664915595        0.7204942520
 C          0.0229570591       -1.4150796179        1.9907718218
 C          0.7938282290       -1.1293075669        3.0999648516
 C          2.1486784591       -0.8777852175        2.9672286215
 C          2.7293263592       -0.9397837390        1.7070362217
 C          1.9545484693       -1.2453224600        0.5956014319
 H          2.4361478994       -1.3078227512       -0.3647333080
 N          4.1014214193       -0.7109425796        1.5432820016
 S          4.7061320297       -0.0433366014        0.1387466409
 O          4.7335143795       -1.0338400125       -0.9087280280
 O          5.9965157798        0.4841793387        0.5311773605
 C          3.6211950302        1.2992074085       -0.3066067707
 C          3.3637725903        2.2778897096        0.6314483882
 C          2.5429574307        3.3372966995        0.2844625270
 C          2.0003450209        3.4029121082       -0.9885630032
 C          2.2728342407        2.4155579771       -1.9202985821
 C          3.0892776303        1.3512067873       -1.5775872108
 H          3.3192227802        0.5569624764       -2.2707523899
 H          1.8418723609        2.4651983062       -2.9077845522
 H          1.3533797012        4.2238687181       -1.2545245442
 H          2.3220578208        4.1050730003        1.0088134461
 H          3.8045606202        2.2042313105        1.6126588784
 H          4.5851423093       -0.3776497689        2.3634261413
 H          2.7510906191       -0.6415667267        3.8309296613
 H          0.3364774389       -1.0915314257        4.0772572215
 H         -1.0382576610       -1.5974244175        2.0937030119
 H         -0.7095880811       -2.7675494703       -0.3512865468
 C          0.4309894995       -1.6703684822       -1.7918079278
 C          1.2263487192       -2.8364471930       -2.2951861865
 C         -0.0690399406       -2.4716179733       -2.9545834570
 H         -0.0419424404       -2.0268731744       -3.9380569175
 H         -0.9256929908       -3.1080438628       -2.7869455164
 H          2.1505331593       -2.6440800238       -2.8198385166
 H          1.2508364088       -3.7250881823       -1.6825212355
 H          0.8031600698       -0.6718990525       -1.9955112589
