  62
        -98.94049908
 C         -1.1851554301       -1.4114648603        0.6415507806
 C         -1.8966808203       -1.0747826201       -0.5386893393
 C         -3.0000522802       -0.1114821900       -0.3689611490
 C         -3.1892380899        0.4781401299        0.8239549211
 C         -4.2786497997        1.4629064500        1.1365965814
 C         -3.8487860496        2.9110193800        0.8686381314
 C         -3.2086434499        3.1194970800       -0.5028188587
 H         -2.9738758298        4.1821809900       -0.5917020586
 H         -2.2675844400        2.5680637199       -0.5422772789
 C         -4.0832655702        2.6904089802       -1.6880150085
 H         -5.1232726601        2.5989583703       -1.3725758483
 H         -4.0446159102        3.4678380602       -2.4536821485
 C         -3.6368527904        1.3866601302       -2.3511384987
 H         -2.5685565905        1.4344166001       -2.5756061989
 H         -4.1673486006        1.2888327903       -3.3020219286
 C         -3.9052437704        0.1070678302       -1.5498067788
 H         -4.9511662704        0.0859840302       -1.2342647386
 H         -3.7320263106       -0.7413135598       -2.2185383389
 H         -4.7267194496        3.5523563100        0.9662280717
 H         -3.1288191795        3.2078510698        1.6349505613
 H         -5.1535585499        1.2192400001        0.5358941316
 H         -4.5369887095        1.3593142199        2.1921953915
 O         -2.3780739997        0.2512149797        1.8904112309
 C         -1.3868781998       -0.7151035804        1.8370283807
 O         -0.7566067496       -0.8511830905        2.9059929405
 H          1.9995633300       -0.9394288007        0.9099904600
 C          1.9632615597       -1.4010419306       -0.0646113900
 C          0.9302373096       -2.2798909205       -0.3628066799
 C          0.9169544893       -2.9044816404       -1.6030733399
 C          1.9104410291       -2.6315516004       -2.5264942901
 C          2.9324804093       -1.7469180405       -2.2318367002
 C          2.9644832596       -1.1311893106       -0.9846955802
 N          4.0174966997       -0.2739788508       -0.6464337403
 S          3.9614369801        0.8466378491        0.5794173998
 O          5.1674160401        1.6228577490        0.3888521296
 O          3.8246464003        0.1914323891        1.8554799597
 C          2.5512317001        1.8871981993        0.2504641701
 C          1.4279584103        1.8271293094        1.0491425403
 C          0.3654907503        2.6736896695        0.7743417006
 C          0.4441259602        3.5626939696       -0.2859603893
 C          1.5782019201        3.6081376995       -1.0825974396
 C          2.6418446900        2.7636707894       -0.8138632198
 H          3.5490244199        2.7854299393       -1.3952503100
 H          1.6349964000        4.3011046696       -1.9064077895
 H         -0.3811192398        4.2265178997       -0.4886775891
 H         -0.5157291796        2.6284516996        1.3958079908
 H          1.3914486904        1.1335484793        1.8755515903
 H          4.6359740696       -0.0127614708       -1.3981510404
 H          3.7069166291       -1.5403176606       -2.9544115604
 H          1.8878477889       -3.1131660803       -3.4922714901
 H          0.1154313491       -3.5815861003       -1.8478936898
 C         -0.1307218003       -2.5062512704        0.6838789903
 H          0.3516409199       -2.3888205806        1.6679659702
 C         -0.6891212604       -3.9227537504        0.6497576303
 C         -1.9092234203       -4.2750004203        1.4470457205
 C         -1.9548425906       -4.3114876702       -0.0495045695
 H         -1.9864049808       -5.2758899501       -0.5352443096
 H         -2.5098061206       -3.5463055401       -0.5668714293
 H         -1.9221496703       -5.2075346103        1.9907871304
 H         -2.4176701501       -3.4663479803        1.9530851507
 H          0.1093377695       -4.6591144804        0.6430010901
 O         -1.6658564906       -1.5614347901       -1.6732102693
