  62
        -98.93505660
 C          2.2175586547        1.2931985235        0.3183240644
 C          1.8404497361        0.2909712450       -0.6078905211
 C          2.6787750105       -0.9250686903       -0.6285031841
 C          3.7136501879       -1.0362194832        0.2207447928
 C          4.7380551921       -2.1389345313        0.3263010858
 C          4.2462771517       -3.5874091526        0.2129093793
 C          2.8545139374       -3.8460314491        0.8076242514
 H          2.5356128638       -2.9862918325        1.4002156778
 H          2.9095967439       -4.7020265481        1.4828746263
 C          1.7984693127       -4.1543016426       -0.2562715275
 H          0.9596498610       -4.6683276424        0.2200143090
 H          2.2289192917       -4.8406938414       -0.9885067470
 C          1.2272505062       -2.9381411634       -0.9834251414
 H          0.6145743333       -2.3553183617       -0.2902659192
 H          0.5622714851       -3.3024525608       -1.7698699663
 C          2.2627909933       -1.9870648957       -1.6062645455
 H          1.7835341761       -1.4607789814       -2.4360367420
 H          3.1182675571       -2.5354754699       -1.9926488500
 H          4.9822969815       -4.2097955083        0.7247215070
 H          4.2492803965       -3.8946151499       -0.8318568185
 H          5.2140272066       -1.9904298657        1.2988691558
 H          5.5034228228       -1.9614217443       -0.4351985831
 O          4.0041483078       -0.0689194424        1.1375606059
 C          3.2689086312        1.1013475716        1.2166775457
 O          3.6376765324        1.8765489628        2.1219181577
 O          0.8652763753        0.3919431991       -1.3932889276
 C          1.4741156274        2.6130612636        0.4236620887
 C         -0.0210133748        2.4037899180        0.3760706731
 C         -0.8765181828        3.1475730703       -0.4265957019
 C         -2.2436151377        2.9321702697       -0.3870761181
 C         -2.7872152825        1.9627098633        0.4340349787
 C         -1.9376527236        1.1921065186        1.2187121436
 C         -0.5723789530        1.4308639045        1.2011990608
 H          0.0837757990        0.8359778505        1.8259879148
 N         -2.4707892014        0.1687115219        2.0173794939
 S         -3.7426876178       -0.7423365053        1.4257737399
 O         -4.9866219870       -0.0710950410        1.7164378160
 O         -3.5828848425       -2.0448324981        2.0366605265
 C         -3.5358240276       -0.8541806306       -0.3444099294
 C         -4.6425083811       -0.6940705020       -1.1547160728
 C         -4.4869118763       -0.7835870194       -2.5285106207
 C         -3.2313812078       -1.0191985063       -3.0675619263
 C         -2.1303261709       -1.1779619982       -2.2409339726
 C         -2.2834608713       -1.1035631980       -0.8667202781
 H         -1.4330736267       -1.2133059350       -0.2136215518
 H         -1.1448413067       -1.3345317289       -2.6482135815
 H         -3.1076743948       -1.0753549667       -4.1375680784
 H         -5.3422750157       -0.6609641818       -3.1733054993
 H         -5.5960931686       -0.4924806316       -0.6939247293
 H         -1.7798943663       -0.4108318069        2.4697299200
 H         -3.8501528780        1.7873941881        0.4795332922
 H         -2.8954362045        3.5245923085       -1.0105331691
 H         -0.4756490007        3.8905782642       -1.0953029131
 H          1.7182351938        2.9935868338        1.4302456956
 C          1.9616236620        3.6650597171       -0.5643463167
 C          3.3189560896        3.5772326370       -1.1944424996
 C          2.0917582460        3.3725729310       -2.0280750649
 H          1.8184559458        4.1434626612       -2.7335318598
 H          1.8529659320        2.3732911125       -2.3553204704
 H          3.8824739622        4.4900798252       -1.3180664273
 H          3.9311874601        2.7184953396       -0.9591987029
 H          1.6313705115        4.6625148218       -0.2918349869
