  62
        -98.94421299
 C          2.0345439397        1.3658986675        0.2683533213
 C          2.0491182377        0.3094844212        1.2156837726
 C          2.9086299382       -0.8376770744        0.9024334222
 C          3.6206259182       -0.8290549500       -0.2392359550
 C          4.5170527604       -1.9405052035       -0.7013429841
 C          3.7605180221       -2.9367157912       -1.5904926770
 C          2.4297459311       -3.4027586284       -1.0001663877
 H          1.7447408715       -2.5531799034       -0.9530403287
 H          2.0044335384       -4.1255343041       -1.6997930608
 C          2.5415256181       -4.0399598966        0.3921713373
 H          1.9396553776       -4.9508610351        0.4130607286
 H          3.5741982339       -4.3343127264        0.5827922778
 C          2.0490122823       -3.1527625657        1.5373215178
 H          1.9593075458       -3.7731318251        2.4329039864
 H          1.0539042418       -2.7667398286        1.3022744622
 C          2.9524818772       -1.9655950020        1.8944538828
 H          2.5951513455       -1.5472457742        2.8399174341
 H          3.9780240241       -2.3117403401        2.0393313440
 H          4.4058013645       -3.7990473242       -1.7680836012
 H          3.5599039735       -2.4588440810       -2.5521111855
 H          4.9285077893       -2.4513713392        0.1671141592
 H          5.3361544140       -1.5039885552       -1.2754501223
 O          3.5671218820        0.1891535543       -1.1323846835
 C          2.7588198358        1.2982279552       -0.9226002330
 O          2.7929489089        2.1214841656       -1.8563785856
 O          1.3768601232        0.3326751761        2.2822534215
 C          1.1436896128        2.5563334668        0.5871834292
 C         -0.1825079450        2.3645776604       -0.1078760086
 C         -0.3640027130        2.6576035632       -1.4548272058
 C         -1.5858815539        2.4236202635       -2.0603686554
 C         -2.6468654808        1.8980236296       -1.3431206219
 C         -2.4702953323        1.5871837252       -0.0009071108
 C         -1.2435581023        1.8231664023        0.6053663961
 H         -1.1013172513        1.5681808073        1.6470471672
 N         -3.5396366765        1.0645362725        0.7507350210
 S         -4.3735108205       -0.2764809720        0.2030340405
 O         -5.0351791563        0.0481512530       -1.0347952665
 O         -5.2246822545       -0.6642614344        1.3037603061
 C         -3.1378830803       -1.5310026296       -0.0762537447
 C         -2.4751534697       -1.5736590139       -1.2866127046
 C         -1.4972096973       -2.5366426775       -1.4785009670
 C         -1.2027476633       -3.4356448144       -0.4651425024
 C         -1.8727785510       -3.3750125699        0.7470998370
 C         -2.8466149894       -2.4106372016        0.9475059944
 H         -3.3980102860       -2.3344937257        1.8709026293
 H         -1.6375705827       -4.0734536521        1.5341760530
 H         -0.4460007479       -4.1875629294       -0.6212155259
 H         -0.9687613257       -2.5825979816       -2.4175065968
 H         -2.7382072346       -0.8666317551       -2.0562245347
 H         -3.3196896696        0.9506096854        1.7299797803
 H         -3.6037989059        1.7159531006       -1.8050256338
 H         -1.7165877315        2.6574923606       -3.1063028587
 H          0.4639107111        3.0448231356       -2.0273314279
 H          0.9615656646        2.4939597834        1.6687093027
 C          1.7758903989        3.8989294915        0.2889911036
 C          1.1831879410        5.1268642807        0.9105911634
 C          2.5124084043        4.6169396187        1.3782670896
 H          3.4004254751        5.1732175490        1.1182576822
 H          2.5645863463        4.1419000019        2.3472390603
 H          1.1554334653        6.0360939497        0.3301911797
 H          0.3319763117        4.9956139441        1.5618303775
 H          2.1754629460        3.9834420634       -0.7123727689
