  62
        -98.94453175
 C         -1.8704817343       -0.8763242831        0.4293548283
 C         -2.1364234684        0.3025673133       -0.3086894077
 C         -3.4237152651        0.9547585428       -0.0323277684
 C         -4.2446289447        0.4603225408        0.9107709969
 C         -5.5708896153        1.0359045151        1.3265575471
 C         -6.7443141128        0.6095002703        0.4337257143
 C         -6.7726756036        1.2506990612       -0.9543137859
 H         -7.7523920734        1.0362831841       -1.3859282583
 H         -6.6914644705        2.3336202557       -0.8547287022
 C         -5.6884763804        0.7364728382       -1.9116228145
 H         -6.1345779867        0.5228296934       -2.8855392245
 H         -5.2839264624       -0.2044163187       -1.5316711812
 C         -4.5352220820        1.7120873541       -2.1461328424
 H         -4.9087878740        2.6071261455       -2.6486698400
 H         -3.8098470711        1.2322490867       -2.8080153701
 C         -3.8011281554        2.1404487640       -0.8688209691
 H         -2.8799819355        2.6527298223       -1.1574945162
 H         -4.4179602842        2.8309131685       -0.2940103839
 H         -7.6651256545        0.8813395858        0.9549224765
 H         -6.7288839178       -0.4781593369        0.3325595897
 H         -5.5074964364        2.1242515312        1.3515536120
 H         -5.7609636427        0.6758198058        2.3400268411
 O         -3.9363819531       -0.6495378179        1.6313886905
 C         -2.7686055623       -1.3516921199        1.3922992978
 O         -2.6390981870       -2.3745791709        2.0939867290
 O         -1.3565062996        0.8129508082       -1.1582228095
 C         -0.6182234813       -1.7207650575        0.2473845023
 C          0.5691805528       -1.1357306560        0.9734426180
 C          1.2430519210       -1.8631537129        1.9468761932
 C          2.3571127002       -1.3360113211        2.5775107952
 C          2.8210682617       -0.0746466594        2.2501549163
 C          2.1480293370        0.6621466385        1.2845068350
 C          1.0370683727        0.1295559890        0.6487779676
 H          0.5210687249        0.7061237844       -0.1046362254
 N          2.6251367592        1.9425789315        0.9284703547
 S          4.1849732594        1.9559276474        0.3107493797
 O          5.1261061029        1.8666968985        1.3989690920
 O          4.2744006697        3.1436042287       -0.5087752596
 C          4.2694709835        0.4817999141       -0.6901360368
 C          3.5488376517        0.4537054097       -1.8675189503
 C          3.5354869050       -0.7107867019       -2.6171459807
 C          4.2331963211       -1.8239829458       -2.1742035136
 C          4.9511561868       -1.7798224807       -0.9895488852
 C          4.9688327665       -0.6174122080       -0.2357323392
 H          5.5122060709       -0.5399345771        0.6915384673
 H          5.4916836685       -2.6477851754       -0.6483248951
 H          4.2179039697       -2.7315555589       -2.7570888642
 H          2.9762823575       -0.7460132372       -3.5385836738
 H          3.0187033446        1.3383015800       -2.1833308484
 H          2.0031106000        2.4222610545        0.2923926348
 H          3.6922366170        0.3503717600        2.7222283573
 H          2.8700675962       -1.9134352415        3.3313201259
 H          0.8821879371       -2.8453187762        2.2151526576
 H         -0.8480151568       -2.6897055350        0.7098312419
 C         -0.2683013329       -1.9555969879       -1.2108501516
 C          0.5980528027       -3.1231087677       -1.5698691705
 C         -0.8574279692       -3.1310006334       -1.9278502379
 H         -1.1381509378       -3.0146912629       -2.9639113647
 H         -1.5181884128       -3.7777234789       -1.3684976390
 H          1.3218308550       -3.0005038535       -2.3600510502
 H          0.9259839599       -3.7672598947       -0.7684571997
 H         -0.1415890658       -1.0406084065       -1.7737410381
