  62
        -98.93763310
 C          2.6435753092       -1.1096384999       -0.2024565552
 C          2.7174682362       -0.2392840627        0.9108831819
 C          3.5146560449        0.9853875980        0.7247772143
 C          4.1236158207        1.2065827964       -0.4526700175
 C          5.0097428419        2.3632688888       -0.8413168083
 C          4.5405302289        3.7726250660       -0.4494561831
 C          3.0174444635        3.9644132734       -0.4012981598
 H          2.7546607519        4.8533728762       -0.9780412810
 H          2.5168381566        3.1147327928       -0.8694221086
 C          2.4830737719        4.1538153748        1.0208229824
 H          3.1539624223        4.8281469660        1.5574229130
 H          1.5061955758        4.6402382968        0.9659900000
 C          2.3051343371        2.8729852339        1.8358922228
 H          1.4643432484        2.2945790752        1.4424144853
 H          2.0445271769        3.1588440122        2.8575905464
 C          3.5276560864        1.9418367443        1.8820164446
 H          4.4544944875        2.5084400920        1.9269605018
 H          3.4473264211        1.3277471529        2.7828912585
 H          4.9599249681        4.0394009717        0.5196494386
 H          4.9700525775        4.4620170416       -1.1781776437
 H          6.0036976866        2.1872172034       -0.4204496545
 H          5.1036319392        2.2966296424       -1.9278589285
 O          4.0271988837        0.3363713607       -1.4988660979
 C          3.2785191605       -0.8251162382       -1.4086951134
 O          3.2520704745       -1.5046271131       -2.4563849753
 H          0.3405088325       -0.4197600701       -1.1344571725
 C         -0.2236567945       -0.9849030033       -0.4009720731
 C          0.3904800390       -2.0493335979        0.2478542427
 C         -0.3523175165       -2.7772718917        1.1678109946
 C         -1.6628163593       -2.4273215316        1.4447578337
 C         -2.2601428687       -1.3513173418        0.8152467197
 C         -1.5324942998       -0.6260376175       -0.1193766928
 N         -2.1268464251        0.4768026793       -0.7593724163
 S         -3.6141342288        0.2450450498       -1.5059563709
 O         -3.7745995742       -1.1203082395       -1.9500165937
 O         -3.6870434844        1.2665077823       -2.5279809444
 C         -4.7951434377        0.6163891461       -0.2269248600
 C         -5.7528465760       -0.3165793950        0.1192015633
 C         -6.6653786242       -0.0018100245        1.1142875386
 C         -6.6046440389        1.2336216323        1.7406569283
 C         -5.6379264316        2.1604324575        1.3793522460
 C         -4.7231231956        1.8523890781        0.3851864694
 H         -3.9583626432        2.5441834740        0.0732901143
 H         -5.5934738593        3.1200177678        1.8688961839
 H         -7.3148696962        1.4761071425        2.5153447140
 H         -7.4175684043       -0.7207578321        1.3966920144
 H         -5.7575729779       -1.2661711142       -0.3918081991
 H         -1.4988929931        0.9728406621       -1.3751783314
 H         -3.2762754778       -1.0691800004        1.0370220106
 H         -2.2252759425       -2.9978056486        2.1679368693
 H          0.0966993851       -3.6165606792        1.6728421004
 C          1.8201329760       -2.3804234738       -0.1099729249
 H          1.8237681302       -2.8212844270       -1.1184115793
 C          2.4723722698       -3.3546213645        0.8495632374
 C          2.3353083649       -4.8319347130        0.6402992361
 C          3.6457778225       -4.1557825488        0.3744592084
 H          4.4649401176       -4.3265442474        1.0566473996
 H          3.9547160260       -4.0188924988       -0.6520619495
 H          1.7577204972       -5.1662048119       -0.2084546313
 H          2.2581287938       -5.4710034065        1.5069676032
 H          2.5009439306       -2.9787247876        1.8657360534
 O          2.1501157838       -0.4713497800        2.0087402317
