  62
        -98.93560743
 C          2.3197648216        1.1176484293       -0.5266755378
 C          3.3963715982        0.7156843474        0.3048108919
 C          4.0235367135       -0.5848217879        0.0172739873
 C          3.5415674677       -1.3376363934       -0.9887671053
 C          3.9832746265       -2.6791349729       -1.5354165510
 C          4.9615352062       -3.5547033488       -0.7571135637
 C          4.4058438348       -4.1322490200        0.5444438960
 H          3.6444422782       -4.8763419844        0.2969297325
 H          5.2169601201       -4.6464440473        1.0644394325
 C          3.7671309418       -3.1238188478        1.4965195291
 H          2.8935951648       -2.6703432846        1.0221191409
 H          3.4044353095       -3.6724166620        2.3702669431
 C          4.6936016730       -2.0168626298        1.9958779435
 H          5.5829284571       -2.4590012569        2.4491552083
 H          4.1578242318       -1.4676104650        2.7749745798
 C          5.1390559622       -0.9972693725        0.9340119723
 H          5.9879525849       -1.3660346864        0.3634288472
 H          5.4603644332       -0.0894442544        1.4527619015
 H          5.8848863666       -3.0140186374       -0.5717210844
 H          5.2123995208       -4.3958371296       -1.4090333998
 H          3.0625298819       -3.2434926238       -1.7156751635
 H          4.4138422015       -2.4699639909       -2.5209329455
 O          2.5003500795       -0.9131401804       -1.7604791268
 C          1.8619692560        0.2988585102       -1.5569264651
 O          0.9296847500        0.5031458286       -2.3615043260
 O          3.8307396119        1.4282988854        1.2490322158
 C          1.6823903903        2.4628843226       -0.2172337612
 C          0.4087932266        2.2739846938        0.5723127084
 C          0.3251644932        2.6749813981        1.9004740577
 C         -0.8346403968        2.4695360486        2.6277450519
 C         -1.9325299767        1.8579750445        2.0490745235
 C         -1.8533396935        1.4434902729        0.7262697230
 C         -0.6953135328        1.6622751738       -0.0044968331
 H         -0.6369400596        1.3226658568       -1.0282390619
 N         -2.9635772891        0.8021635720        0.1226702575
 S         -3.3276940998       -0.7319922258        0.7359861395
 O         -3.5467368049       -0.6197049582        2.1551808184
 O         -2.3243020504       -1.6912451278        0.3201662714
 C         -4.8705896631       -1.0572398854       -0.0930998518
 C         -6.0320457846       -0.5336763414        0.4412363999
 C         -7.2305134278       -0.7523559245       -0.2189035019
 C         -7.2470124541       -1.4849404907       -1.3965411754
 C         -6.0728072651       -2.0040624672       -1.9204860598
 C         -4.8705277831       -1.7879718427       -1.2652545467
 H         -3.9347652827       -2.1795367721       -1.6320221765
 H         -6.0880340809       -2.5748530347       -2.8351077098
 H         -8.1807698857       -1.6545735857       -1.9090165512
 H         -8.1460145132       -0.3519580956        0.1856869173
 H         -5.9710839902        0.0221606202        1.3619861965
 H         -2.8040059548        0.6919294624       -0.8720628526
 H         -2.8328228531        1.6734110232        2.6110275049
 H         -0.8839436478        2.7868264349        3.6584474154
 H          1.1851184681        3.1334294880        2.3671791713
 H          2.4036566743        2.9771997647        0.4319176353
 C          1.4498339224        3.3172222304       -1.4475568954
 C          1.2890616582        4.7975962908       -1.2816957144
 C          2.5315145309        4.2441763757       -1.9108796119
 H          2.6769991364        4.3738337252       -2.9727746123
 H          3.4477425009        4.2678298937       -1.3390994886
 H          0.5786751554        5.3115210100       -1.9106076375
 H          1.3630727695        5.1983607167       -0.2821420177
 H          0.8583309256        2.8269504369       -2.2094992734
