  62
        -98.94251859
 C          2.3036567529        0.7052609592        0.0906017740
 C          1.4958928013       -0.0589509050       -0.7797225742
 C          1.5493565444       -1.5223903121       -0.6233169220
 C          2.3610835678       -2.0455876297        0.3123244660
 C          2.5432410582       -3.4939549430        0.6839495495
 C          1.2373886721       -4.2611783700        0.9511947879
 C          0.9484801201       -5.3378357005       -0.0951516822
 H          1.8848883200       -5.8431044656       -0.3414783122
 H          0.2809468681       -6.0820012309        0.3450871894
 C          0.2928246151       -4.8291982423       -1.3772895160
 H         -0.7379580978       -4.5397093231       -1.1599903083
 H          0.2570158094       -5.6633556713       -2.0822351127
 C          0.9905467270       -3.6458313125       -2.0526910369
 H          2.0725037636       -3.7600082229       -2.0091641295
 H          0.7106236740       -3.6586320936       -3.1083283633
 C          0.5789420541       -2.2794799293       -1.4886186934
 H          0.3599524298       -1.5971283312       -2.3165224499
 H         -0.3550087244       -2.3704261897       -0.9220802023
 H          0.4067078237       -3.5566607056        1.0168267977
 H          1.3225847607       -4.7458526936        1.9255275422
 H          3.1203135860       -3.9964600406       -0.0949611388
 H          3.1632305433       -3.4863296408        1.5830589504
 O          3.1753170071       -1.2717487903        1.0877792893
 C          3.1375826691        0.1090424283        1.0318821064
 O          3.8818301528        0.6836083711        1.8544696167
 H          0.3571630991        1.0404830320        1.6315713977
 C         -0.0576315306        1.8796439580        1.0916401933
 C          0.7479578046        2.6222964137        0.2374067126
 C          0.1828559672        3.7039094062       -0.4274000593
 C         -1.1574344710        4.0090010124       -0.2623950099
 C         -1.9673531044        3.2303025710        0.5439902202
 C         -1.4088832917        2.1528771951        1.2213615865
 N         -2.1898763281        1.3053131577        2.0366925026
 S         -2.3527432266       -0.2863764621        1.5306898395
 O         -3.2496267397       -0.8929029090        2.4923915747
 O         -1.0587724869       -0.9020920545        1.3937501621
 C         -3.1824589379       -0.1608204565       -0.0441944840
 C         -4.5548203882       -0.3238419544       -0.0752468551
 C         -5.2248452588       -0.1579306390       -1.2759783470
 C         -4.5148416760        0.1772391114       -2.4194375068
 C         -3.1395587282        0.3413708338       -2.3693359436
 C         -2.4599101535        0.1740902762       -1.1716181770
 H         -1.3885524727        0.2936156551       -1.1162415514
 H         -2.5802206309        0.6022234902       -3.2534288490
 H         -5.0351435515        0.3104275529       -3.3548628898
 H         -6.2944039960       -0.2876781097       -1.3159358527
 H         -5.0623899627       -0.5874425362        0.8387653570
 H         -3.1098236114        1.6742645841        2.2377501196
 H         -3.0195716288        3.4486218114        0.6486865614
 H         -1.5811911989        4.8520884845       -0.7861972983
 H          0.7925381500        4.3048668052       -1.0823039902
 C          2.1951602924        2.2185508716        0.0761492439
 H          2.7576192640        2.5749500303        0.9521111409
 C          2.8334051811        2.7829842900       -1.1773873697
 C          3.5120087041        4.1189111126       -1.1509088999
 C          4.3275568057        2.8658611290       -1.2494589083
 H          4.8129903276        2.6348043151       -2.1856965784
 H          4.8810437895        2.5418837570       -0.3797783613
 H          3.4418719287        4.7505620481       -2.0236792225
 H          3.5251871064        4.6562263629       -0.2146097308
 H          2.3041175679        2.4922339148       -2.0774979320
 O          0.7436067991        0.4631512384       -1.6458673801
