  62
        -98.94008711
 C         -2.6152986665       -1.1538376063        0.2740490358
 C         -2.5761588798       -0.3113335275       -0.8648219705
 C         -3.4592780098        0.8657223086       -0.8209137598
 C         -4.2226867633        1.0841138008        0.2642010459
 C         -5.1204135665        2.2707596053        0.4595778587
 C         -4.3804597190        3.4149658726        1.1668490859
 C         -3.0198960182        3.7445105065        0.5520989191
 H         -2.6042088966        4.5836717883        1.1143435044
 H         -2.3468778063        2.8961134827        0.6986210441
 C         -3.0664868990        4.1010026392       -0.9403877479
 H         -2.4426988760        4.9812819161       -1.1089457667
 H         -4.0851424164        4.3666438593       -1.2252486865
 C         -2.5496198609        3.0031204194       -1.8721798976
 H         -2.4229759712        3.4352301674       -2.8682356096
 H         -1.5659303077        2.6665870641       -1.5343696824
 C         -3.4538569352        1.7728542794       -2.0191110656
 H         -4.4687114037        2.0886081247       -2.2689491023
 H         -3.0648423879        1.1734485001       -2.8473042770
 H         -4.2250914783        3.1335212008        2.2111642180
 H         -5.0156125898        4.3023332488        1.1457276952
 H         -5.4880959096        2.6050170026       -0.5085299584
 H         -5.9682152488        1.9636362419        1.0743368141
 O         -4.2187968323        0.2641045936        1.3470536527
 C         -3.4031056888       -0.8552155218        1.3880094852
 O         -3.4619231401       -1.4909384318        2.4603778266
 H         -0.1979342813       -0.4815073635        1.3769236880
 C          0.3238193619       -1.0172242550        0.5915067482
 C         -0.3297038777       -2.0553233548       -0.0627331807
 C          0.3508118354       -2.7382240366       -1.0611295943
 C          1.6435078830       -2.3768616398       -1.3996176616
 C          2.2827880625       -1.3331410697       -0.7573682899
 C          1.6136004627       -0.6455867570        0.2470374468
 N          2.2482282389        0.4300152754        0.8942715094
 S          3.7895976212        0.1837392292        1.5129170226
 O          3.9915520455       -1.1945328150        1.8965492768
 O          3.9367259273        1.1694242444        2.5619584758
 C          4.8694457429        0.6085602076        0.1629954177
 C          4.7153331778        1.8469203281       -0.4287557742
 C          5.5549246980        2.1977731422       -1.4737544339
 C          6.5310637595        1.3112589186       -1.9040713129
 C          6.6753088092        0.0732454245       -1.2968581577
 C          5.8376794178       -0.2846770118       -0.2518013860
 H          5.9080118137       -1.2386767823        0.2459429428
 H          7.4347747449       -0.6142126593       -1.6329495083
 H          7.1830123259        1.5872468242       -2.7177447357
 H          5.4449586479        3.1593071370       -1.9488602768
 H          3.9462022969        2.5069829931       -0.0635427432
 H          1.6648936026        0.8963173150        1.5737895905
 H          3.2859832636       -1.0444410842       -1.0253354042
 H          2.1581589470       -2.9120891015       -2.1829870147
 H         -0.1372764344       -3.5394467074       -1.5907379257
 C         -1.7348242015       -2.3874003334        0.3792467769
 H         -1.6957141223       -2.6155514853        1.4581177795
 C         -2.3066457113       -3.6234244738       -0.2992617199
 C         -3.7851074989       -3.7908348243       -0.4812862546
 C         -2.9025017474       -3.5817246839       -1.6730710721
 H         -2.7279608447       -4.4198793718       -2.3318482581
 H         -2.9295376970       -2.6283080756       -2.1756182246
 H         -4.2128409458       -4.7688990660       -0.3191378048
 H         -4.4241099236       -2.9785754209       -0.1658071337
 H         -1.7545877505       -4.5198547752       -0.0334295985
 O         -1.8482373680       -0.5165625021       -1.8686933121
