  62
        -98.94047369
 C         -1.4689989448       -1.4762061362       -0.3525779870
 C         -2.7544100277       -1.4598837546        0.2386900197
 C         -3.6099298982       -0.3019530807       -0.0751395471
 C         -3.1227644234        0.6705678749       -0.8655533214
 C         -3.7924712610        1.9613579700       -1.2502181019
 C         -3.4188956857        3.0835235230       -0.2662897024
 C         -4.3291518646        3.2011268700        0.9549237310
 H         -3.8914045638        3.9526443925        1.6161111157
 H         -5.3074973936        3.5716774259        0.6418215205
 C         -4.5256064310        1.9054793384        1.7457211657
 H         -3.5700005179        1.3877477984        1.8481877016
 H         -4.8579063814        2.1723563939        2.7508878483
 C         -5.5613254291        0.9646228110        1.1130187471
 H         -6.1131820665        1.5043279263        0.3436814625
 H         -6.2932965394        0.6706258630        1.8684249169
 C         -4.9890709963       -0.3330155128        0.5263475905
 H         -4.9297491750       -1.0907040808        1.3142167135
 H         -5.6855708779       -0.7211963588       -0.2248603826
 H         -3.4420039913        4.0379048540       -0.7962398668
 H         -2.3916557620        2.9109164204        0.0621620582
 H         -4.8691579158        1.8344726210       -1.3117601488
 H         -3.4141647374        2.2234252906       -2.2403366287
 O         -1.8734742011        0.6218854928       -1.4030930287
 C         -1.0205385391       -0.4444528605       -1.1783005670
 O          0.0735359582       -0.3547719955       -1.7645996332
 O         -3.1703127204       -2.3739880235        1.0008348815
 C         -0.5423762611       -2.6387901637       -0.0350299684
 C          0.6245858268       -2.0792217852        0.7377509635
 C          0.4681748758       -1.7920049864        2.0910222868
 C          1.4807101142       -1.1807065203        2.8064131834
 C          2.6647039446       -0.8249621287        2.1829719836
 C          2.8247599912       -1.0985777254        0.8316254603
 C          1.8196004099       -1.7414456888        0.1221112289
 H          1.9597745268       -1.9411574822       -0.9279318832
 N          4.0123988726       -0.7057468952        0.1773844019
 S          4.3554415525        0.9348506660        0.1836211167
 O          5.3745823685        1.1146502445       -0.8258667903
 O          4.7154305463        1.3289074256        1.5231392181
 C          2.8500102394        1.7538607375       -0.3073051584
 C          1.9289916095        2.1122554891        0.6555766280
 C          0.7442582838        2.7083209225        0.2560761038
 C          0.5019011890        2.9347186394       -1.0892487113
 C          1.4368656189        2.5670570216       -2.0430004577
 C          2.6206329226        1.9660286785       -1.6512220829
 H          3.3733229362        1.6668547535       -2.3631221892
 H          1.2399967280        2.7356576529       -3.0894196713
 H         -0.4245967316        3.3921723833       -1.3993514020
 H          0.0128815453        2.9891842863        0.9984072035
 H          2.1530988807        1.9259635703        1.6933139749
 H          4.0590094199       -1.0429582708       -0.7744357363
 H          3.4561654857       -0.3234018366        2.7161698315
 H          1.3463892274       -0.9708700200        3.8568900887
 H         -0.4671176367       -2.0428940511        2.5720450496
 H         -1.1157753712       -3.3000161901        0.6279412611
 C         -0.1515878935       -3.4109251557       -1.2770071457
 C          0.4757874569       -4.7644272488       -1.1325272211
 C         -0.9249850831       -4.6385978525       -1.6496398333
 H         -1.1088155752       -4.8333403826       -2.6956531147
 H         -1.7382727645       -4.9324010064       -1.0024661940
 H          1.2553146783       -5.0498791307       -1.8223919868
 H          0.6150016157       -5.1435018116       -0.1313943788
 H          0.1869177633       -2.7777058200       -2.0882656881
