  62
        -98.93324014
 C         -2.2821900842        0.2431542776       -0.1773965289
 C         -3.4231475267        0.6194486243       -0.9243946461
 C         -4.6779066337       -0.0651631095       -0.5802263414
 C         -4.6689358839       -0.9972939302        0.3903585983
 C         -5.8771142229       -1.7233978611        0.9104140131
 C         -6.6794010423       -0.8030599590        1.8525766702
 C         -8.0704490531       -0.4318591041        1.3381322672
 H         -8.7363912766       -1.2876696196        1.4668839537
 H         -8.4468925308        0.3763903508        1.9687297883
 C         -8.1458921210        0.0036225653       -0.1284375505
 H         -9.1181926053        0.4806866210       -0.2685798301
 H         -8.1353586460       -0.8760204973       -0.7736730913
 C         -7.0514447736        0.9701913053       -0.5990402808
 H         -6.6427439268        1.5293045692        0.2429240018
 H         -7.5080759180        1.6986082693       -1.2722249783
 C         -5.8996826648        0.3046752813       -1.3753489272
 H         -6.2751804389       -0.5781912666       -1.9000619899
 H         -5.5371913061        1.0068869776       -2.1319623759
 H         -6.0973009829        0.1055246237        2.0204416281
 H         -6.7922187083       -1.2866217919        2.8240546597
 H         -5.5207227659       -2.6014021063        1.4492551963
 H         -6.4954074884       -2.0515963354        0.0778819442
 O         -3.5481206165       -1.3398228389        1.0781661264
 C         -2.3281994449       -0.7340442854        0.8160380657
 O         -1.3873189338       -1.1473873441        1.5195640120
 O         -3.3913959163        1.4835844420       -1.8424010498
 C         -0.9569118887        0.9195118496       -0.4726969643
 C          0.0833283500       -0.0968091675       -0.8743367099
 C         -0.2364060878       -1.0440541791       -1.8446289455
 C          0.6932606611       -1.9803962168       -2.2518241113
 C          1.9694911181       -1.9820432805       -1.7160223757
 C          2.2999375748       -1.0402933568       -0.7499408131
 C          1.3586608049       -0.1080369571       -0.3338620169
 H          1.6451219017        0.6082139023        0.4175608088
 N          3.5793396775       -1.0236844112       -0.1717538266
 S          4.2564937058        0.4699385562        0.2297261938
 O          3.7907978976        0.8628798920        1.5358368445
 O          4.0360509073        1.4170061615       -0.8397391653
 C          5.9830954901        0.0301086992        0.3176174772
 C          6.8049495917        0.2862925689       -0.7636766655
 C          8.1395757134       -0.0813274638       -0.6933691227
 C          8.6262784320       -0.6983142533        0.4492057389
 C          7.7892424915       -0.9488547978        1.5265976978
 C          6.4542116709       -0.5827404348        1.4635737186
 H          5.7688162346       -0.7485629569        2.2784513291
 H          8.1717844905       -1.4262882536        2.4142617121
 H          9.6653111674       -0.9827276973        0.5020581089
 H          8.7934287248        0.1152847478       -1.5276795811
 H          6.3843331712        0.7759684366       -1.6272330452
 H          4.2385107915       -1.6184559423       -0.6548998508
 H          2.6984073724       -2.7104576497       -2.0374099773
 H          0.4265846175       -2.7106466169       -3.0011995423
 H         -1.2296659654       -1.0357802932       -2.2732126950
 H         -1.1462208198        1.5694576470       -1.3409741408
 C         -0.5337625037        1.7851697964        0.6952554069
 C          0.3484563570        2.9757297742        0.4715453211
 C         -1.0950221955        3.1682079909        0.8244425457
 H         -1.3412408837        3.5350733518        1.8095392994
 H         -1.7699675626        3.5029619799        0.0502415721
 H          1.1012354065        3.2034877626        1.2119554853
 H          0.6605701846        3.1828333574       -0.5413168651
 H         -0.3940025952        1.2139615722        1.6071426985
