  62
        -98.94910515
 C          1.2547129834        1.5516676704        0.5358653750
 C          2.2025629570        1.2243283894       -0.4639497499
 C          3.1984868113        0.2137184114       -0.0891157989
 C          3.1715336705       -0.3325159957        1.1397916953
 C          4.1045569384       -1.3922489776        1.6582606065
 C          3.6827796154       -2.8164562930        1.2701086476
 C          3.9191299226       -3.1885115158       -0.1943508877
 H          4.9464553539       -2.9473906678       -0.4709556481
 H          3.8051003059       -4.2718483102       -0.2698741049
 C          2.9470237436       -2.5253470635       -1.1806268037
 H          2.5916347990       -3.2716977555       -1.8957937066
 H          2.0639807519       -2.1707492132       -0.6420240365
 C          3.5480176779       -1.3756698730       -1.9907579441
 H          2.7558521590       -0.9452242117       -2.6090707917
 H          4.3223530811       -1.7654971021       -2.6560309064
 C          4.1549430285       -0.2478300935       -1.1463167071
 H          5.0926405571       -0.5750981860       -0.6979422390
 H          4.3564902287        0.6002683816       -1.8055691231
 H          4.2505714080       -3.5088923257        1.8964359894
 H          2.6226494625       -2.9446234212        1.5047736994
 H          5.1180005844       -1.2001547342        1.3049524742
 H          4.0934358010       -1.3138584723        2.7475892666
 O          2.2648050036        0.0333966710        2.0838194478
 C          1.2579279226        0.9383860830        1.7876459631
 O          0.4374137929        1.1153912608        2.7130056140
 H         -0.3783063043       -0.1112040664       -0.1644126994
 C         -0.8960394467        0.4852533754       -0.8982411463
 C         -0.7446200379        1.8640468669       -0.8877931549
 C         -1.4003940411        2.6056102482       -1.8627226467
 C         -2.1684897192        1.9694265219       -2.8233536106
 C         -2.3163885313        0.5935761823       -2.8265261240
 C         -1.6684388976       -0.1559259098       -1.8515482236
 N         -1.7709398169       -1.5542518194       -1.8048263868
 S         -1.7841106503       -2.3299752821       -0.3232288499
 O         -0.4691387507       -2.3291537634        0.2666120231
 O         -2.3424823424       -3.6339321913       -0.6124351278
 C         -2.9398268593       -1.3910069317        0.6596262684
 C         -2.5121076228       -0.5829340077        1.6923999072
 C         -3.4492387896        0.1692623624        2.3847678061
 C         -4.7886266053        0.1018343158        2.0367052874
 C         -5.2046352390       -0.7225094919        1.0015811160
 C         -4.2734327707       -1.4732632099        0.3045893618
 H         -4.5576107211       -2.1348396868       -0.4975717686
 H         -6.2478401465       -0.7786009275        0.7358082896
 H         -5.5109015362        0.6927412883        2.5774567256
 H         -3.1143266134        0.8063685642        3.1879875912
 H         -1.4650163265       -0.5374918030        1.9496193230
 H         -2.4246494098       -1.9619412344       -2.4562949072
 H         -2.9143830587        0.1031178677       -3.5789647881
 H         -2.6647318203        2.5558740278       -3.5815713302
 H         -1.3018023051        3.6788261503       -1.8761497918
 C          0.1002060679        2.4787147192        0.2053321514
 H         -0.5181925338        2.5318538251        1.1145047330
 C          0.5946359002        3.8704176074       -0.1299895751
 C         -0.2321886977        5.0714975399        0.2154426148
 C          1.0165729485        4.7743652997        0.9881275950
 H          1.8800727208        5.4058594143        0.8431603224
 H          0.9190807693        4.3941181206        1.9949350642
 H         -1.1794739025        4.9044885930        0.7056185568
 H         -0.2249036118        5.9136114495       -0.4600883495
 H          1.1810019031        3.8937425373       -1.0408568891
 O          2.2117374093        1.7369286841       -1.6133263205
