  62
        -98.94042127
 C          1.9246152890        1.2418929920        0.4909869874
 C          2.0129152715       -0.0727598592        1.0218711176
 C          3.2296536834       -0.8271328974        0.7037403910
 C          4.1941052624       -0.2496337756       -0.0350037081
 C          5.5225818947       -0.8577959961       -0.3948418583
 C          5.4849923798       -1.7672578153       -1.6302204985
 C          4.7982791783       -3.1168844314       -1.4195378996
 H          5.2285941575       -3.6096177286       -0.5470086066
 H          5.0299663270       -3.7345006975       -2.2895851364
 C          3.2735374793       -3.0310656090       -1.2661432951
 H          2.8013756284       -3.7948687894       -1.8884013859
 H          2.9245052323       -2.0621944794       -1.6314694154
 C          2.7669975445       -3.2338761338        0.1615597385
 H          3.0009663369       -4.2481660929        0.4922932917
 H          1.6795307984       -3.1275809067        0.1501358592
 C          3.3348505917       -2.2426976277        1.1862353447
 H          4.3725125220       -2.4902725281        1.4099226811
 H          2.7494297618       -2.3240810348        2.1053403168
 H          6.5189044615       -1.9519373670       -1.9309393998
 H          4.9933164117       -1.2308006068       -2.4451554720
 H          5.9109775652       -1.4166169260        0.4572640101
 H          6.1982652240       -0.0249319238       -0.6015535206
 O          4.0717364039        1.0069293270       -0.5328586574
 C          2.9315153210        1.7716700457       -0.3168740399
 O          2.9647675480        2.8747456339       -0.8970668086
 O          1.1175120097       -0.5847824183        1.7437893732
 C          0.6744984118        2.0262539676        0.8486047879
 C         -0.4052813903        1.8858774349       -0.1986986833
 C         -0.1358736249        2.0875008830       -1.5477338160
 C         -1.1347208877        1.9435614027       -2.4942030575
 C         -2.4231378088        1.6091725877       -2.1155403287
 C         -2.7059034568        1.4179997300       -0.7702276038
 C         -1.6993522278        1.5540842243        0.1781852061
 H         -1.9234813621        1.3844235012        1.2226602083
 N         -4.0248611202        1.0819908508       -0.3922461200
 S         -4.5548516217       -0.4611602619       -0.7774946978
 O         -4.2489088622       -0.7235364586       -2.1594057973
 O         -5.9486141903       -0.5085961221       -0.4016538838
 C         -3.6099523893       -1.5298771741        0.2931686679
 C         -2.2669197005       -1.7137251477        0.0277959498
 C         -1.5075566109       -2.4590490143        0.9150956361
 C         -2.1016670858       -3.0131135476        2.0384137996
 C         -3.4537011115       -2.8285509730        2.2846324334
 C         -4.2155689422       -2.0699721947        1.4106214436
 H         -5.2667721115       -1.8889260246        1.5676690362
 H         -3.9117253272       -3.2634653753        3.1585240281
 H         -1.5006881848       -3.5867452085        2.7261210733
 H         -0.4496035819       -2.5759557609        0.7447077381
 H         -1.8340527603       -1.2733901235       -0.8566345428
 H         -4.2192217311        1.2589409426        0.5839415464
 H         -3.2079059578        1.4783822396       -2.8422716485
 H         -0.9080765134        2.0974582429       -3.5385504185
 H          0.8645608832        2.3594102157       -1.8483717476
 H          0.3003880126        1.5616588427        1.7714685293
 C          0.9325539458        3.4953779066        1.1242989568
 C         -0.0086294334        4.2499420168        2.0124222380
 C          1.3732732527        3.9213947505        2.4909823257
 H          2.0984249821        4.7169242053        2.5720822612
 H          1.4834546557        3.1533094609        3.2427119887
 H         -0.2376906975        5.2748854274        1.7645574457
 H         -0.8354461551        3.7083881140        2.4462051141
 H          1.3576156486        4.0204525248        0.2790256107
