  62
        -98.94520578
 C         -1.7823988095       -1.3131207883       -0.2443902589
 C         -2.8829395855       -0.6737613068        0.3661400446
 C         -3.2631672485        0.6401045251       -0.1793504404
 C         -2.5571842178        1.1497672044       -1.2042018178
 C         -2.7146725811        2.5027377431       -1.8407449521
 C         -1.7680455409        3.5156353977       -1.1721084252
 C         -2.3576125674        4.2390169101        0.0371153976
 H         -1.5572825927        4.8410841571        0.4739248580
 H         -3.1445569277        4.9209319303       -0.2939059308
 C         -2.9218340747        3.3182696854        1.1219382717
 H         -2.2366200463        2.4803794189        1.2699998721
 H         -2.9491171684        3.8790582637        2.0587412044
 C         -4.3353982457        2.8062452286        0.8062731407
 H         -4.9841725121        2.9877164467        1.6658598689
 H         -4.7461467412        3.3871321359       -0.0195641290
 C         -4.4370025843        1.3080609342        0.4840059103
 H         -4.5841412411        0.7471887443        1.4125785350
 H         -5.3278256500        1.1359116159       -0.1297272268
 H         -0.8637651928        2.9830676767       -0.8633066913
 H         -1.4746427884        4.2664305383       -1.9091384867
 H         -2.4251719871        2.3919284172       -2.8877930370
 H         -3.7470602164        2.8371538641       -1.7945617873
 O         -1.5212232498        0.4865312589       -1.7837589676
 C         -1.0858457815       -0.7318157999       -1.3025516948
 O         -0.0944649512       -1.1991440784       -1.8975699125
 O         -3.5119124200       -1.1728010598        1.3410089418
 C         -1.2725093381       -2.6261375154        0.3205921894
 C          0.1755800170       -2.4732493893        0.7184826858
 C          1.1376830167       -3.4529196491        0.5066996351
 C          2.4579020925       -3.2296034496        0.8597251164
 C          2.8519489753       -2.0203194158        1.4028425437
 C          1.8940819931       -1.0392887036        1.6296110566
 C          0.5672534231       -1.2847178428        1.3215110876
 H         -0.1625481672       -0.5110222367        1.5108678467
 N          2.2342733649        0.2319449055        2.1425101907
 S          2.0304619538        1.5164088883        1.0788888177
 O          2.4928270796        2.6825859086        1.8014731681
 O          0.6719243349        1.5561793062        0.6073866316
 C          3.1714636385        1.1517019637       -0.2427989144
 C          2.8093953788        0.2565749504       -1.2292021305
 C          3.7475340561       -0.0834416876       -2.1930111112
 C          5.0184188038        0.4682229019       -2.1535792306
 C          5.3645541560        1.3668752549       -1.1552139841
 C          4.4356780695        1.7080338805       -0.1863032524
 H          4.6565238961        2.4030209488        0.6079391867
 H          6.3524365969        1.7977300185       -1.1272942387
 H          5.7417914454        0.1966209839       -2.9061905922
 H          3.4698674337       -0.7821640349       -2.9658550890
 H          1.8130841272       -0.1586532533       -1.2487096780
 H          3.1684954954        0.2758318968        2.5277814378
 H          3.8870240819       -1.8329670547        1.6462734139
 H          3.1936705229       -4.0000583691        0.6872093196
 H          0.8548057017       -4.3899446353        0.0554531981
 H         -1.8684979523       -2.8102074037        1.2272673527
 C         -1.5089888113       -3.7577882198       -0.6582687685
 C         -1.7675625835       -5.1490873811       -0.1638915333
 C         -2.8826530135       -4.3471638682       -0.7623564015
 H         -3.2535217819       -4.6217291861       -1.7383839353
 H         -3.6411051911       -3.9494487808       -0.1038432029
 H         -1.3753182024       -5.9793132012       -0.7316895892
 H         -1.7764823620       -5.3073588559        0.9039277825
 H         -0.9462743096       -3.6341747153       -1.5768891469
