  62
        -98.93698447
 C         -1.7565408699       -0.7959596204        0.0568678112
 C         -2.3502464903        0.4850842793       -0.0357316506
 C         -3.7835383003        0.5545801894        0.2939814592
 C         -4.4289260900       -0.5673213303        0.6619897307
 C         -5.8986145100       -0.6725959303        0.9555522708
 C         -6.6994892300       -0.6938904124       -0.3619671092
 C         -7.6049443503        0.5204542471       -0.5683792210
 H         -7.9446653202        0.5026117855       -1.6061489810
 H         -8.4862798103        0.4186189977        0.0683592091
 C         -6.9704751807        1.8834326677       -0.2749004328
 H         -6.9653375508        2.0621841692        0.8013600769
 H         -7.6256496109        2.6397577969       -0.7124410339
 C         -5.5491455207        2.0925339573       -0.8135846931
 H         -5.3588947605        1.4361159462       -1.6630199221
 H         -5.4730583010        3.1177086168       -1.1819165745
 C         -4.4332658507        1.9092561991        0.2322534173
 H         -3.6166026009        2.5984214690       -0.0033336537
 H         -4.8132018009        2.1779359404        1.2219502869
 H         -7.3185711497       -1.5915565926       -0.3973029080
 H         -5.9926310199       -0.7672597133       -1.1910569891
 H         -6.0534171498       -1.5991200296        1.5087957621
 H         -6.2095825703        0.1623391905        1.5794768596
 O         -3.8204253297       -1.7795093700        0.7403307525
 C         -2.4760299696       -1.9263556300        0.4419129728
 O         -2.0441377993       -3.0905097598        0.5621123744
 H          1.8757306797        0.6097026792       -0.9717526706
 C          1.6275766696        0.6565334406        0.0752419794
 C          0.5630334298       -0.0689539490        0.5867075903
 C          0.2844574997        0.0288517629        1.9481652402
 C          1.0284200194        0.8560401242        2.7655783691
 C          2.0824082392        1.5894272538        2.2486820181
 C          2.3808353494        1.4862995520        0.8966301482
 N          3.4492938492        2.2090075215        0.3429112973
 S          4.4584125095        1.4525460503       -0.7525735216
 O          5.7081921992        2.1759693008       -0.6557006525
 O          3.8533505495        1.4187895883       -2.0594519216
 C          4.6569251999       -0.2050744488       -0.1216042293
 C          5.1522319499       -0.3631552569        1.1580362410
 C          5.2844363002       -1.6422388061        1.6724544728
 C          4.9224596306       -2.7371555473        0.9023865243
 C          4.4356847306       -2.5622486692       -0.3833355860
 C          4.2991952302       -1.2842660200       -0.9020737078
 H          3.9198330203       -1.1038230615       -1.8945881880
 H          4.1589854109       -3.4154085301       -0.9823622048
 H          5.0213944508       -3.7326565367        1.3056479357
 H          5.6663311002       -1.7824165946        2.6707885630
 H          5.4345678596        0.5068670540        1.7280415198
 H          3.9690384790        2.7671904826        1.0040072365
 H          2.6611200090        2.2424808048        2.8839262972
 H          0.7895579593        0.9293485956        3.8158190289
 H         -0.5378830302       -0.5446145968        2.3541122509
 C         -0.2856355399       -0.9741576204       -0.2723189185
 H         -0.0418269596       -2.0159257000       -0.0161945370
 C         -0.0643050399       -0.7737041124       -1.7574807087
 C          0.9910465304       -1.5535195931       -2.4795104076
 C         -0.4569936095       -1.8679867239       -2.7025704572
 H         -0.9077064095       -1.5981625353       -3.6459184876
 H         -0.8562223092       -2.7743179234       -2.2704102660
 H          1.5407139103       -1.0644474241       -3.2703692782
 H          1.5719849806       -2.2551896622       -1.9005360066
 H         -0.2521464101        0.2467679071       -2.0725381302
 O         -1.7166627506        1.5201265790       -0.3709685020
