  62
        -98.93244375
 C         -2.0168759317       -1.1268613645       -0.3969439557
 C         -2.7539566951       -0.6267434400        0.7051152719
 C         -3.2763843781        0.7456081595        0.6074159599
 C         -3.0183512718        1.4644324241       -0.5006675130
 C         -3.3534032264        2.8966783812       -0.8632116002
 C         -4.3668535342        3.6917075740       -0.0441866864
 C         -5.8089589930        3.1987863700       -0.1613354958
 H         -6.1689145104        3.4185012247       -1.1695578831
 H         -6.4223234808        3.7655564744        0.5423360017
 C         -6.0173282349        1.7069401244        0.0862875232
 H         -5.4758402129        1.1313124922       -0.6672297784
 H         -7.0810178920        1.4914516426       -0.0461815181
 C         -5.6125156928        1.2117100434        1.4731776064
 H         -5.9558263243        0.1780252150        1.5666567872
 H         -6.1199967083        1.8033051038        2.2374754138
 C         -4.1024509818        1.2246137300        1.7667707837
 H         -3.9103458004        0.5249598304        2.5854952615
 H         -3.7709831727        2.2074403123        2.0936887422
 H         -4.3364677290        4.7169621377       -0.4229007579
 H         -4.0588181193        3.7313411699        0.9964006026
 H         -3.6761640202        2.8724228925       -1.9091048941
 H         -2.3964277814        3.4308596374       -0.8501489862
 O         -2.3013676126        0.9450742977       -1.5381592922
 C         -1.7743140759       -0.3415251400       -1.5233129163
 O         -1.1574838593       -0.6303582778       -2.5648150926
 O         -2.9660764810       -1.3111654898        1.7432990418
 C         -1.4435122449       -2.5221437712       -0.2260027054
 C         -0.2081445877       -2.4687586056        0.6393698311
 C          0.0343965976       -3.4419053740        1.6018041274
 C          1.1814051183       -3.3943292643        2.3741005511
 C          2.1033216141       -2.3783416531        2.2026148681
 C          1.8591298086       -1.3867573646        1.2574165271
 C          0.7111778744       -1.4418079142        0.4812943442
 H          0.5344789501       -0.6726448397       -0.2564335054
 N          2.7496912891       -0.3123246875        1.1097456962
 S          2.8287295917        0.5168079579       -0.3565261925
 O          1.7222474661        1.4383324139       -0.4273551804
 O          2.9795985844       -0.4190099475       -1.4475492376
 C          4.3473334845        1.4192744577       -0.1126913011
 C          5.5256452877        0.9165474493       -0.6314047080
 C          6.7059499127        1.6083637862       -0.4083991938
 C          6.6886241810        2.7832369165        0.3280852970
 C          5.4980588745        3.2766444866        0.8410462975
 C          4.3144643765        2.5902581455        0.6207863881
 H          3.3639934781        2.9381347080        0.9908542949
 H          5.4874498464        4.1920806041        1.4102716088
 H          7.6081366387        3.3197086345        0.5007923248
 H          7.6320101553        1.2292128835       -0.8094034927
 H          5.4879358105        0.0046558237       -1.2053980493
 H          3.6648622848       -0.4930507427        1.4984545742
 H          2.9981237894       -2.3397462431        2.8045228697
 H          1.3609088722       -4.1570806156        3.1163564551
 H         -0.6898462068       -4.2290258979        1.7512538214
 H         -2.2069298840       -3.0868711420        0.3350416451
 C         -1.1983055595       -3.2631503564       -1.5307227335
 C          0.1483760200       -3.3546455904       -2.1764573404
 C         -0.4587248451       -4.5685929539       -1.5433985462
 H         -0.8211010020       -5.3564158506       -2.1861762666
 H         -0.0301989708       -4.9131112684       -0.6148322624
 H          0.1902733843       -3.2862036428       -3.2527700514
 H          0.9817133966       -2.8699436707       -1.6896141871
 H         -2.0437455062       -3.1758688778       -2.2055389290
