  62
        -98.94092728
 C         -1.5487454293       -0.6919203914        0.4202798521
 C         -2.6425144461       -0.9098442714       -0.4542202308
 C         -3.5565207169        0.2309992754       -0.6220727063
 C         -3.2966453760        1.4023060831       -0.0158809718
 C         -4.1131354396        2.6611537110       -0.1278009474
 C         -5.3112965256        2.7157671539        0.8297865524
 C         -6.4754282029        1.7923406172        0.4686413447
 H         -7.3236685170        2.0885073585        1.0890698671
 H         -6.7598557899        1.9573134096       -0.5710423539
 C         -6.1944765668        0.3005128468        0.6969699218
 H         -5.3288842834        0.1894007211        1.3543796905
 H         -7.0445502267       -0.1559975433        1.2091956729
 C         -5.9514988378       -0.5015363668       -0.5816744259
 H         -5.7278163809       -1.5340645541       -0.3012279652
 H         -6.8600059720       -0.5075258561       -1.1879472475
 C         -4.7928681750        0.0181093516       -1.4426956386
 H         -5.0820125582        0.9413841432       -1.9440242559
 H         -4.5636142614       -0.7359117278       -2.1994960030
 H         -4.9630050643        2.4851216888        1.8393441841
 H         -5.6793774391        3.7443625596        0.8328631041
 H         -3.4430940740        3.4889494297        0.1138418354
 H         -4.4607511596        2.7828921054       -1.1540367727
 O         -2.2084408930        1.5856692824        0.7794570644
 C         -1.3337198226        0.5437756827        1.0358073869
 O         -0.4071801135        0.8381326886        1.8184314902
 O         -2.8609217112       -1.9816404294       -1.0725208557
 C         -0.5096578272       -1.7560554591        0.7363627100
 C          0.6145891446       -1.6725621940       -0.2636106494
 C          0.3695607832       -1.7670467760       -1.6310779081
 C          1.4094875756       -1.6655515585       -2.5358134356
 C          2.7050454516       -1.4455521136       -2.0994560290
 C          2.9581565499       -1.3393478841       -0.7377138427
 C          1.9149732304       -1.4658675318        0.1705601213
 H          2.1279328717       -1.3784323124        1.2252797025
 N          4.2625720962       -1.1132691462       -0.2625984789
 S          4.5210841738        0.1290485572        0.8330116332
 O          5.9551928149        0.3195976338        0.8270962458
 O          3.9312746696       -0.2055001061        2.1025726715
 C          3.7237867983        1.5430302496        0.0946850232
 C          2.4008286590        1.8211633837        0.3708996864
 C          1.7942847545        2.8839858654       -0.2815302217
 C          2.5116735436        3.6456158868       -1.1898948222
 C          3.8424075292        3.3548137224       -1.4525311572
 C          4.4534759797        2.2913087751       -0.8101352321
 H          5.4874584858        2.0359991854       -0.9776754596
 H          4.4009828453        3.9515881021       -2.1554849282
 H          2.0313745197        4.4707586003       -1.6919526881
 H          0.7588000046        3.0991974101       -0.0668423246
 H          1.8496903631        1.2275355675        1.0835023952
 H          4.9622292974       -1.0805734832       -0.9910468893
 H          3.5149324916       -1.3569354938       -2.8075175254
 H          1.2089902664       -1.7478041600       -3.5932848527
 H         -0.6430759087       -1.9234803520       -1.9709560634
 H         -0.0955111465       -1.4747456148        1.7182917129
 C         -1.0969132185       -3.1531341576        0.8809582887
 C         -0.7777523525       -4.2910779586       -0.0369512605
 C         -0.2181372566       -4.2746772189        1.3515444515
 H         -0.6070080192       -4.9691237110        2.0809372854
 H          0.8350072736       -4.0610806404        1.4639809009
 H         -1.5745625699       -4.9813042216       -0.2684645836
 H         -0.1018271644       -4.1157708808       -0.8585878271
 H         -2.1056652129       -3.1301730325        1.2798828382
