  62
        -98.93956677
 C          2.4710563984        1.0114442008        0.5248457745
 C          2.3829898908       -0.3053887626        0.0084537824
 C          3.5476782277       -1.1666923721        0.2638809872
 C          4.5813623502       -0.7076412931        0.9903964712
 C          5.8285699934       -1.4716227064        1.3432397154
 C          6.9033658934       -1.4491423932        0.2476393141
 C          6.5948498468       -2.3006711307       -0.9846146854
 H          7.5166130055       -2.3678768928       -1.5659491897
 H          6.3342120117       -3.3116621689       -0.6699990831
 C          5.4852713002       -1.7371374248       -1.8834674774
 H          5.3238761242       -0.6830236948       -1.6457591501
 H          5.8036699418       -1.7832157298       -2.9273900800
 C          4.1513838436       -2.4774070941       -1.7834159250
 H          4.2725169222       -3.5007753141       -2.1453379128
 H          3.4305859019       -1.9746013605       -2.4334651938
 C          3.5607213830       -2.5258731220       -0.3681153840
 H          4.1205649439       -3.2278449340        0.2493054725
 H          2.5253459992       -2.8680267085       -0.4390637995
 H          7.8305647133       -1.8165052764        0.6934845150
 H          7.0698758462       -0.4133474733       -0.0575242835
 H          6.2392397684       -0.9994887024        2.2383874341
 H          5.5716496029       -2.5040542802        1.5817428628
 O          4.5991692479        0.5436892363        1.5228994968
 C          3.5595740914        1.4301026556        1.2952924080
 O          3.7137843531        2.5443404492        1.8348631886
 O          1.3997154876       -0.7534159995       -0.6340600160
 C          1.3630841199        2.0307596020        0.3196595339
 C          0.0212881834        1.4038180080        0.6069007287
 C         -0.2704906776        1.0243739376        1.9142397425
 C         -1.4836319537        0.4426928026        2.2275481493
 C         -2.4331448936        0.2253269446        1.2443694074
 C         -2.1538234596        0.6016959101       -0.0616329542
 C         -0.9359666705        1.1942300399       -0.3721561325
 H         -0.7246293946        1.4611647381       -1.3960924106
 N         -3.1028495023        0.3650758226       -1.0680333179
 S         -4.7052011486        0.7714887156       -0.8054849355
 O         -5.2658036057        0.9666188815       -2.1250084104
 O         -4.8268137621        1.8800871354        0.1129766057
 C         -5.4118685851       -0.6968359815       -0.0877476953
 C         -6.0697698996       -0.6237446365        1.1242816655
 C         -6.6180405479       -1.7786425645        1.6602912982
 C         -6.5003513655       -2.9794918700        0.9775326540
 C         -5.8393611249       -3.0354530469       -0.2405693061
 C         -5.2895438267       -1.8845084513       -0.7818060760
 H         -4.7705999426       -1.8862264638       -1.7258570658
 H         -5.7497394336       -3.9711894824       -0.7685685122
 H         -6.9264073244       -3.8772499869        1.3968857334
 H         -7.1326291261       -1.7372922797        2.6068822706
 H         -6.1327854557        0.3309727634        1.6220351990
 H         -2.7974864749        0.6227954039       -1.9945815470
 H         -3.3799394808       -0.2322513640        1.4803111084
 H         -1.6927227296        0.1518048565        3.2459869421
 H          0.4743302602        1.1870759952        2.6819821223
 H          1.5415574060        2.8014757684        1.0875430661
 C          1.4185888839        2.7427324549       -1.0242708236
 C          2.7338591158        3.0363275107       -1.6804808146
 C          1.7948096799        2.0448754358       -2.2954638733
 H          1.2809855649        2.3244126891       -3.2041621550
 H          2.0404986196        0.9964480618       -2.2387582156
 H          2.8651230131        3.9929396953       -2.1634530104
 H          3.6258085293        2.6668743175       -1.1954311520
 H          0.6616058936        3.5182695406       -1.0995776977
