  62
        -98.93972226
 C         -1.8133120932       -0.0233899553       -0.2374765391
 C         -2.7833043649        0.6903441360        0.5099212741
 C         -4.1119727313        0.0607556001        0.5998456973
 C         -4.3214634789       -1.1381891885        0.0291728538
 C         -5.6341636045       -1.8653815188        0.0116124140
 C         -6.4530615375       -1.5044227692       -1.2356302768
 C         -6.5646111934       -0.0006516955       -1.4871289885
 H         -5.5749318144        0.3939416068       -1.7284657288
 H         -7.1890090800        0.1351852062       -2.3728915732
 C         -7.1563399446        0.7968206503       -0.3164967354
 H         -7.8910863097        1.5024640598       -0.7100026571
 H         -7.6841510911        0.1240582600        0.3603817912
 C         -6.1337238641        1.6134177998        0.4758022530
 H         -5.5395417446        2.2211175758       -0.2112226904
 H         -6.6798241040        2.2984990308        1.1296581033
 C         -5.1741151689        0.8060197044        1.3589046667
 H         -5.7437301718        0.1247237646        1.9940031186
 H         -4.6415472598        1.5125234431        2.0021438822
 H         -5.9778691321       -1.9629477069       -2.1061006160
 H         -7.4514194377       -1.9326717130       -1.1290452414
 H         -5.4323185097       -2.9378974517        0.0051272841
 H         -6.1938419220       -1.6165189562        0.9111773817
 O         -3.3556034834       -1.8119811424       -0.6474320525
 C         -2.0926046125       -1.2686271134       -0.8073259912
 O         -1.3127967346       -1.9792985437       -1.4743205458
 O         -2.5742344502        1.7914421489        1.0787389398
 C         -0.3986710294        0.4883505049       -0.4630486778
 C          0.4989258454        0.0558198714        0.6675923950
 C          0.1791983998        0.3530007965        1.9899209613
 C          0.9981537276       -0.0695117627        3.0198268105
 C          2.1522410930       -0.7858225397        2.7539136319
 C          2.4781883426       -1.0914363082        1.4377969374
 C          1.6535518725       -0.6663744292        0.4034774414
 H          1.9021676338       -0.9378108899       -0.6116487492
 N          3.6332127084       -1.8270535339        1.1472013107
 S          4.4791176265       -1.6009616613       -0.2683454843
 O          3.8044743253       -2.2329623063       -1.3741675359
 O          5.8050058592       -2.1010220575        0.0279794112
 C          4.5526096159        0.1633285460       -0.5306900078
 C          4.3423752638        0.6577179092       -1.8019112840
 C          4.4385207651        2.0238460690       -2.0173469222
 C          4.7351315302        2.8697600265       -0.9600773040
 C          4.9420473598        2.3583814284        0.3117028453
 C          4.8565308948        0.9929389874        0.5308589762
 H          5.0216280326        0.5710880933        1.5085852269
 H          5.1687569693        3.0188185335        1.1328954691
 H          4.8008894173        3.9327885874       -1.1281893345
 H          4.2744745095        2.4213195830       -3.0060832118
 H          4.0988011147       -0.0340832587       -2.5927602686
 H          4.2327456325       -2.0316174966        1.9321021447
 H          2.7897238367       -1.1192168547        3.5584850259
 H          0.7380914495        0.1640193154        4.0411470567
 H         -0.7179962514        0.9159208881        2.1965127445
 H         -0.0493918354       -0.0263802661       -1.3725187554
 C         -0.3448400050        1.9858401506       -0.7378429373
 C          0.3422876719        2.9711698870        0.1550738902
 C          0.9506854247        2.6102715200       -1.1640112826
 H          0.9379747813        3.3373283793       -1.9614971502
 H          1.8267932382        1.9789168188       -1.1539202390
 H         -0.1173128701        3.9408305599        0.2694160019
 H          0.8178760612        2.6059519276        1.0509806733
 H         -1.2406160452        2.3377700968       -1.2385974744
