  62
        -98.94253822
 C          1.2210840509        1.6118134994        0.1950522416
 C          1.5942817701        0.6106422686        1.1206674011
 C          2.8635463998       -0.0931394319        0.8683916411
 C          3.5982977703        0.2440024784       -0.2082617885
 C          4.9485027502       -0.2421606820       -0.6944684284
 C          5.6244556494       -1.4404331928       -0.0355747989
 C          4.9570016788       -2.7859382322       -0.3301240599
 H          5.1956347589       -3.0688022517       -1.3584997200
 H          5.3884876582       -3.5408470629        0.3302375997
 C          3.4362850687       -2.8165101115       -0.1951356604
 H          2.9877588793       -2.0805455909       -0.8658163701
 H          3.0840865283       -3.7970646411       -0.5276093111
 C          2.8908728284       -2.5912234421        1.2125557095
 H          1.8041721084       -2.7108141915        1.1567980591
 H          3.2809660778       -3.3569239627        1.8870262292
 C          3.1859596089       -1.2108746226        1.8180010305
 H          4.2122940289       -1.1497552834        2.1708134008
 H          2.5311508088       -1.0764066628        2.6843496004
 H          6.6422480095       -1.4845478231       -0.4323110086
 H          5.7125093992       -1.2748877635        1.0343146912
 H          5.6158876906        0.6226680376       -0.6105960277
 H          4.8335171904       -0.4373033613       -1.7656090186
 O          3.1919828911        1.2140414491       -1.0803458380
 C          1.9875961114        1.8833565297       -0.9355256980
 O          1.7314975021        2.6801844604       -1.8582496276
 O          0.8930705596        0.3162986584        2.1272077007
 C         -0.1063850088        2.3221369800        0.3824616616
 C         -1.0897305787        1.8622853211       -0.6674308089
 C         -1.9557750781        2.7119967620       -1.3435747187
 C         -2.8533647980        2.2027416230       -2.2669227293
 C         -2.9320697787        0.8436680732       -2.5119817101
 C         -2.0731847993       -0.0152757277       -1.8355253504
 C         -1.1559800393        0.5018819313       -0.9362740698
 H         -0.4744730898       -0.1734920093       -0.4433284800
 N         -2.1191675500       -1.4044721575       -2.0285235912
 S         -1.8912147509       -2.4057901284       -0.7036246118
 O         -0.4926706311       -2.4917220294       -0.3703858214
 O         -2.5213386714       -3.6512972479       -1.0910047127
 C         -2.8301151909       -1.6403407488        0.6065538384
 C         -2.2054293809       -1.0017323497        1.6577308290
 C         -2.9881937809       -0.3741558099        2.6153692691
 C         -4.3693636108       -0.3952239391        2.5088589487
 C         -4.9820522009       -1.0502514782        1.4508886381
 C         -4.2070040909       -1.6760812680        0.4895184480
 H         -4.6445774709       -2.2052508572       -0.3414940225
 H         -6.0569852108       -1.0712590275        1.3720986378
 H         -4.9703513908        0.0994778607        3.2555292188
 H         -2.5035687008        0.1320413693        3.4352114596
 H         -1.1282791609       -0.9862943403        1.7235022693
 H         -2.8722346100       -1.7281205468       -2.6174846217
 H         -3.6421554487        0.4497083340       -3.2226798406
 H         -3.5123541975        2.8749083237       -2.7950386791
 H         -1.9235044576        3.7721812918       -1.1540602180
 H         -0.4847517193        1.9716906796        1.3554436413
 C          0.0679681820        3.8238098798        0.4434840026
 C         -0.8955976678        4.6591650399        1.2312939128
 C          0.4993841119        4.4489253688        1.7354608831
 H          1.1935095624        5.2751116185        1.7014240438
 H          0.6461946313        3.7918035282        2.5803176828
 H         -1.1597513272        5.6353570202        0.8535423133
 H         -1.6995370382        4.1488728300        1.7397746523
 H          0.4771787625        4.2349167302       -0.4719583970
