  62
        -98.93637606
 C         -1.9354461703       -0.6443008599       -0.4431639810
 C         -2.9837219303       -1.0612684309        0.4116545085
 C         -4.2462594203       -0.3034699409        0.3399547493
 C         -4.3370763004        0.7294051800       -0.5169034295
 C         -5.5031211104        1.6532778402       -0.7622403885
 C         -6.8875352404        0.9967875802       -0.8789300593
 C         -7.8035079505        1.2935258188        0.3096181110
 H         -7.6623112305        2.3350977985        0.6058010522
 H         -8.8413206104        1.1848539191       -0.0133474992
 C         -7.6013883404        0.3908655075        1.5253900300
 H         -8.2096120805        0.7922619665        2.3394377804
 H         -7.9800908003       -0.6084539523        1.2998630088
 C         -6.1562314004        0.2608354070        2.0111283499
 H         -5.6505341905        1.2248838671        1.9695625910
 H         -6.1835378005       -0.0387750542        3.0609902795
 C         -5.3423653703       -0.7937600720        1.2465339187
 H         -4.8359162203       -1.4526282128        1.9586652280
 H         -6.0141810103       -1.4361333714        0.6696932480
 H         -7.3662700904        1.3874147812       -1.7783656989
 H         -6.7776766603       -0.0782091496       -1.0134588405
 H         -5.5168462605        2.4109003493        0.0252324323
 H         -5.2603095504        2.1753064113       -1.6906107279
 O         -3.2952438204        1.1064161210       -1.3112925491
 C         -2.0786666603        0.4449440311       -1.3010116698
 O         -1.2402093103        0.9150116620       -2.0936540192
 O         -2.8708584602       -2.0323840918        1.2069914674
 C         -0.6186019202       -1.4003195298       -0.3810927118
 C          0.4235222597       -0.5060794805        0.2428345793
 C          0.4975404196       -0.4082205720        1.6294064194
 C          1.4215678395        0.4254628373        2.2315816203
 C          2.2903996995        1.1808254883        1.4636081112
 C          2.2195055696        1.0939093098        0.0796503711
 C          1.3002367997        0.2460949505       -0.5237110299
 H          1.2461403697        0.2011830917       -1.5997350199
 N          3.1065080795        1.8531486408       -0.7037426880
 S          4.7289826995        1.7685909605       -0.3040715480
 O          5.0118101494        2.6830026293        0.7745123030
 O          5.4445788096        2.0107165219       -1.5374535977
 C          4.9756971396        0.0898782799        0.2503396001
 C          5.3963851796       -0.1542731516        1.5414588298
 C          5.5414231797       -1.4666267820        1.9624325184
 C          5.2577562098       -2.5064045711        1.0910657672
 C          4.8372698398       -2.2447703996       -0.2041331526
 C          4.6937749597       -0.9350914192       -0.6312331111
 H          4.3730854498       -0.6994365981       -1.6332127508
 H          4.6160389299       -3.0550622889       -0.8802384535
 H          5.3648129599       -3.5274968814        1.4216001560
 H          5.8696153297       -1.6730063832        2.9683843281
 H          5.6002473695        0.6841956577        2.1872696608
 H          2.9610860796        1.7507762619       -1.6972126881
 H          3.0140383994        1.8422734678        1.9121505920
 H          1.4672984495        0.4894110161        3.3079902904
 H         -0.1882533204       -0.9896804428        2.2293597887
 H         -0.8006038402       -2.2378471806        0.3053504772
 C         -0.2090756801       -1.9550243283       -1.7298627824
 C          0.9032236099       -2.9576641381       -1.7969825635
 C         -0.5091627800       -3.3856763279       -2.0568312140
 H         -0.7970540300       -3.6323387668       -3.0679251943
 H         -1.0124325600       -3.9752310888       -1.3047635447
 H          1.5871570200       -2.9141807771       -2.6307946334
 H          1.3600910399       -3.2528392592       -0.8646278038
 H         -0.2950320602       -1.2362175374       -2.5356546816
