  62
        -98.93950433
 C         -1.5609700388        0.0527370392       -0.6824031913
 C         -2.8408434366       -0.3185682092       -1.1582227750
 C         -3.9178201800       -0.4296408413       -0.1592744966
 C         -3.6385271551       -0.1990893168        1.1372143189
 C         -4.5055642900       -0.2852124056        2.3763856060
 C         -6.0234737136       -0.3977825423        2.2623006560
 C         -6.7167820535        0.8538122025        1.7244774938
 H         -7.7749520175        0.6243041984        1.5818185450
 H         -6.6460018524        1.6402318520        2.4801776020
 C         -6.1488029989        1.4139393336        0.4229051803
 H         -6.7208731760        2.3098321553        0.1668907178
 H         -5.1143659107        1.7264171156        0.5789914886
 C         -6.2061577706        0.4687097978       -0.7752120092
 H         -5.9170696446        1.0412827643       -1.6605687282
 H         -7.2310857849        0.1223322549       -0.9215093055
 C         -5.2817212302       -0.7581493195       -0.6956172862
 H         -5.7380278279       -1.5604691533       -0.1207527999
 H         -5.1280886310       -1.1312985863       -1.7124158914
 H         -6.3993349343       -0.5743099913        3.2738162512
 H         -6.2924598908       -1.2685285926        1.6717875422
 H         -4.2560242919        0.5954866134        2.9769123263
 H         -4.1341766304       -1.1514868375        2.9354089627
 O         -2.3821318974        0.1374556221        1.5523335757
 C         -1.3200113796        0.2759085975        0.6721946229
 O         -0.2512219577        0.6066802655        1.2183023259
 O         -3.0768520541       -0.5568011649       -2.3733389617
 C         -0.4217015744        0.1548189234       -1.6835125067
 C          0.5044268153       -1.0170762026       -1.4666671800
 C          0.0635190303       -2.2942680963       -1.8068866878
 C          0.8711975993       -3.3957073358       -1.6028838779
 C          2.1285294282       -3.2490302398       -1.0408446342
 C          2.5748464254       -1.9816488952       -0.6911377755
 C          1.7684277630       -0.8742807910       -0.9187743404
 H          2.1314578753        0.1016994546       -0.6520181958
 N          3.8518360131       -1.7870083893       -0.1339221567
 S          3.9625787441       -0.9262659006        1.3089216539
 O          5.2614239915       -1.2939859081        1.8368748483
 O          2.8350530979       -1.1976985441        2.1690229075
 C          4.0142140114        0.7818429681        0.8139375587
 C          5.1068126586        1.2044684045        0.0819600429
 C          5.1706929641        2.5283254831       -0.3210529456
 C          4.1476929800        3.4019596473        0.0168066043
 C          3.0607546608        2.9613225172        0.7562597394
 C          2.9876117781        1.6372733766        1.1623404761
 H          2.1401211679        1.2519338547        1.7089997895
 H          2.2609529409        3.6374148723        1.0150437411
 H          4.1947230888        4.4325085820       -0.2988268260
 H          6.0132751869        2.8748438099       -0.8973870766
 H          5.8812131658        0.4931351370       -0.1518583471
 H          4.4035481449       -2.6316961765       -0.0713692961
 H          2.7581202818       -4.1100326446       -0.8720274338
 H          0.5191577069       -4.3792487818       -1.8761546997
 H         -0.9240795201       -2.4084040068       -2.2321095583
 H         -0.8926473037        0.0322868722       -2.6691801663
 C          0.2689399088        1.5003304597       -1.6308779034
 C          1.1783991713        1.9090224944       -2.7499064448
 C         -0.1492369085        2.5822911771       -2.5787364518
 H         -0.1707551709        3.6002011740       -2.2199835416
 H         -0.9338522042        2.3525243038       -3.2848432464
 H          2.0729207736        2.4623883590       -2.5074271623
 H          1.2948280091        1.2200224700       -3.5725800051
 H          0.5395993823        1.8000123299       -0.6260407279
