  62
        -98.94920564
 C          1.0643442803        1.6850496896       -0.1949968008
 C          2.2474018506        1.4179072895        0.5318268687
 C          3.0716155001        0.3135879892        0.0286174785
 C          2.6774907894       -0.3696809510       -1.0611998511
 C          3.4271375088       -1.4989764413       -1.7159655513
 C          3.2010336587       -2.8708065311       -1.0661120409
 C          3.8781919894       -3.0715294710        0.2898327089
 H          3.8255507592       -4.1381516109        0.5178005091
 H          4.9333535794       -2.8059534413        0.2132673583
 C          3.2335298701       -2.2933773906        1.4456280690
 H          2.2181657401       -1.9910274204        1.1754538594
 H          3.1346062904       -2.9493796404        2.3142334292
 C          4.0199644507       -1.0632274807        1.9001822984
 H          4.9703495408       -1.3789407908        2.3377042280
 H          3.4408556112       -0.5606331404        2.6794821085
 C          4.3111504004       -0.0447191210        0.7908519680
 H          4.6880194808        0.8688532290        1.2581022076
 H          5.0745336399       -0.4330910213        0.1164743977
 H          2.1272941688       -3.0414224208       -0.9565995503
 H          3.5875037982       -3.6252136013       -1.7556249109
 H          3.0775264783       -1.5453774414       -2.7496115011
 H          4.4940785988       -1.2730648116       -1.7213726018
 O          1.5310428891       -0.0817213108       -1.7326115706
 C          0.6844798996        0.9323350395       -1.3055245604
 O         -0.3465074107        1.0651438196       -1.9905651699
 O          2.6021002213        2.0767339796        1.5476648584
 C          0.1463692008        2.7996918599        0.2663833295
 C         -1.2401975392        2.2722184504        0.5430083603
 C         -2.3933624791        2.9942320506        0.2594615407
 C         -3.6400053591        2.4693132410        0.5516522414
 C         -3.7656038292        1.2154838911        1.1208806317
 C         -2.6182416692        0.4883322609        1.4150340513
 C         -1.3715442292        1.0238090905        1.1371725906
 H         -0.4902721792        0.4474521403        1.3780091003
 N         -2.6976715592       -0.7877580990        2.0029219516
 S         -1.7931150199       -2.0318032793        1.3529837414
 O         -2.3981048199       -3.2311340891        1.8964560120
 O         -0.3941830097       -1.8496382496        1.6462190907
 C         -2.0672134007       -1.9810244696       -0.4075711585
 C         -3.3618304509       -1.9295103194       -0.8857821478
 C         -3.5678459916       -1.9049575796       -2.2547959977
 C         -2.4835350320       -1.9367825201       -3.1185232183
 C         -1.1914949818       -1.9990929603       -2.6237251789
 C         -0.9821289111       -2.0208228401       -1.2550428890
 H          0.0070062291       -2.0525128902       -0.8266805095
 H         -0.3447708321       -2.0137604607       -3.2908038293
 H         -2.6453413625       -1.9111032003       -4.1845985982
 H         -4.5718432318       -1.8574640095       -2.6449560773
 H         -4.1868687306       -1.9162660091       -0.1922787774
 H         -3.6375382292       -1.0983526887        2.2035423121
 H         -4.7385975792        0.8036578614        1.3412680423
 H         -4.5266285491        3.0410089811        0.3240300517
 H         -2.3152953691        3.9691532605       -0.1929799196
 H          0.5722241714        3.1563803700        1.2170702192
 C          0.1643345606        3.9410452897       -0.7310336808
 C          0.0083815412        5.3586981599       -0.2696204010
 C          1.3418967509        4.8677131794       -0.7441922615
 H          1.7145811105        5.2161515391       -1.6956447918
 H          2.1155472112        4.6926180394       -0.0106383219
 H         -0.5335879389        6.0491416399       -0.8982703909
 H         -0.1184451482        5.5302608701        0.7886878190
 H         -0.2634980699        3.6610577696       -1.6872670505
