  62
        -98.94799866
 C         -1.2733515902       -1.0236874306       -0.0131720094
 C         -1.6357536606        0.0618240901        0.8188175395
 C         -2.6901234407        0.9441899295        0.3044495184
 C         -3.1903545704        0.7212170482       -0.9245723914
 C         -4.2963159304        1.5149839874       -1.5564287724
 C         -5.6691507904        0.9008788974       -1.2478872920
 C         -5.8880083506        0.5896709788        0.2326657382
 H         -6.8990485805        0.1896537987        0.3346502684
 H         -5.1968762705       -0.1999397108        0.5359129091
 C         -5.7188232010        1.7963614297        1.1662655171
 H         -6.5416402011        1.8021392002        1.8841863570
 H         -5.7833040711        2.7211811091        0.5918707862
 C         -4.4213115311        1.7940318707        1.9765916673
 H         -4.5019568514        2.5625204514        2.7499469566
 H         -4.3073129810        0.8314469312        2.4813210983
 C         -3.1386347610        2.0771142302        1.1839819373
 H         -3.2577780011        2.9927801896        0.6004824064
 H         -2.3293342112        2.2366823210        1.9029493773
 H         -5.7655213001       -0.0297644132       -1.8118100512
 H         -6.4407406705        1.5903562369       -1.5953053728
 H         -4.2531448807        2.5401559177       -1.1931050433
 H         -4.1420427303        1.5176304364       -2.6369478124
 O         -2.7707193601       -0.2927940425       -1.7235275104
 C         -1.8051364200       -1.1910829819       -1.2913263594
 O         -1.5142307396       -2.0715457426       -2.1231861085
 H          0.8277661896        0.2183395593       -0.6110009002
 C          1.4252019298       -0.6479834008       -0.8493535793
 C          1.0214885600       -1.9017899805       -0.4123044082
 C          1.7914148003       -3.0034885707       -0.7643473470
 C          2.9244466904       -2.8438786812       -1.5435283370
 C          3.3317343302       -1.5897649515       -1.9613661081
 C          2.5719553900       -0.4807317313       -1.6078323693
 N          2.9458055598        0.8162052384       -1.9921237904
 S          2.7060559893        2.0763057793       -0.9168823717
 O          1.3174009693        2.4631250091       -0.8931763223
 O          3.6344092592        3.0974962791       -1.3552894825
 C          3.2271003492        1.4263178409        0.6611781390
 C          2.3113595891        1.1246563217        1.6477663592
 C          2.7661386290        0.5640560329        2.8317433798
 C          4.1177921990        0.3168950233        3.0096428402
 C          5.0272575791        0.6351317126        2.0119695301
 C          4.5793397392        1.1916391814        0.8259952295
 H          5.2550155893        1.4628207607        0.0311000994
 H          6.0793118491        0.4476894729        2.1539046005
 H          4.4632751489       -0.1234856857        3.9316052507
 H          2.0507836289        0.3202624935        3.6011918499
 H          1.2613949391        1.3177383613        1.4909469488
 H          3.8383195698        0.8829409581       -2.4586908203
 H          4.2200741203       -1.4677493719       -2.5616594380
 H          3.5063459906       -3.7094730314       -1.8210561160
 H          1.4998931604       -3.9876019304       -0.4361850461
 C         -0.2050251801       -1.9890441799        0.4631097217
 H          0.0801801196       -1.6339413989        1.4657954814
 C         -0.7633306799       -3.3916733599        0.5849094129
 C         -0.2453276999       -4.3247332788        1.6372986239
 C         -1.6131988200       -3.7287561689        1.7724642131
 H         -2.4736934599       -4.3644851392        1.6273713835
 H         -1.7641815103       -2.9529884183        2.5091685923
 H          0.5312824499       -3.9590936780        2.2917510037
 H         -0.1681524996       -5.3753970590        1.4015294649
 H         -1.0554384796       -3.8064977909       -0.3731099968
 O         -1.0992634308        0.2817972413        1.9390948394
