  62
        -98.94028104
 C         -1.0926708487       -1.4827405180        0.5979477744
 C         -2.0988402023       -1.3267791539       -0.3832448188
 C         -3.1525323679       -0.3250761924       -0.1085762918
 C         -3.0987877485        0.3831616777        1.0335889929
 C         -4.0422769513        1.4515475133        1.5225807595
 C         -3.8824932686        2.7953637017        0.7926080145
 C         -3.7118659688        2.6901795212       -0.7203266460
 H         -3.4913220651        3.6913419831       -1.0995336601
 H         -2.8517674270        2.0566122804       -0.9434559687
 C         -4.9342468071        2.1695034833       -1.4719928798
 H         -5.7859457597        2.8229031687       -1.2699777071
 H         -4.7121005782        2.2344785088       -2.5400804153
 C         -5.3413653299        0.7283525266       -1.1599395751
 H         -5.8639506131        0.6631581168       -0.2093699374
 H         -6.0558766729        0.4181429092       -1.9279683349
 C         -4.1936444599       -0.2753233800       -1.2007874399
 H         -4.6160784679       -1.2863595671       -1.2445162080
 H         -3.6432350867       -0.1547097576       -2.1406388848
 H         -3.0019036428        3.3007102686        1.1966713941
 H         -4.7528264241        3.4132173109        1.0203734981
 H         -5.0664503206        1.0957803449        1.4527182752
 H         -3.8184571328        1.6022792309        2.5813502666
 O         -2.0935247428        0.2135518180        1.9428108282
 C         -1.0859673503       -0.7110030319        1.7610602170
 O         -0.2551446168       -0.7535804163        2.6924230112
 H          2.2451491277       -1.0448216171        0.8943209224
 C          2.1091414648       -1.2451892739       -0.1581189240
 C          1.0243459945       -2.0025392639       -0.5819102879
 C          0.8788828823       -2.2599577070       -1.9404991741
 C          1.7999479825       -1.7663499037       -2.8467000138
 C          2.8741001484       -1.0047875021       -2.4225436300
 C          3.0290891728       -0.7412678806       -1.0664159473
 N          4.1194850528        0.0148717258       -0.6068870700
 S          3.9102835508        1.1353959014        0.6158802893
 O          5.0543860151        2.0128436402        0.4893294734
 O          3.7652496900        0.4683889438        1.8837124028
 C          2.4258069188        2.0198430581        0.1780148452
 C          2.4979899772        2.9081830374       -0.8782687974
 C          1.3534902102        3.5811935083       -1.2709349901
 C          0.1578252653        3.3527385762       -0.6061890662
 C          0.1041502355        2.4620474380        0.4534723465
 C          1.2461680982        1.7852479898        0.8525118372
 H          1.2251535016        1.0862094530        1.6743560123
 H         -0.8207415374        2.2791390866        0.9768278418
 H         -0.7370876430        3.8720091867       -0.9110648858
 H          1.3939579624        4.2791961930       -2.0914897357
 H          3.4491573402        3.0698016718       -1.3590307074
 H          4.7131027640        0.3790055296       -1.3380479184
 H          3.5914800683       -0.6208548040       -3.1316062756
 H          1.6765833616       -1.9731241483       -3.8988826341
 H          0.0290846064       -2.8256102252       -2.2845564043
 C          0.0356890677       -2.4922955477        0.4492836923
 H          0.5501928643       -2.5029877235        1.4201603758
 C         -0.4756077091       -3.8898570631        0.1624673403
 C          0.4436891205       -5.0549003677        0.3658236529
 C         -0.7037683178       -4.8322636078        1.3038524477
 H         -1.5478336543       -5.5040292232        1.2568947749
 H         -0.4874121405       -4.4739875896        2.3002718993
 H          0.3901095045       -5.8820645716       -0.3251161920
 H          1.4400272755       -4.8458960020        0.7262126737
 H         -1.1761649266       -3.9351904887       -0.6606964825
 O         -2.1482865402       -1.9914250122       -1.4502753394
