  62
        -98.94105904
 C          1.7437123716       -0.9812579761       -0.2918553768
 C          2.1507190385        0.3668430473       -0.4501487136
 C          3.5985107638        0.5790074194       -0.6044731365
 C          4.4352932505       -0.4721841231       -0.6475445599
 C          5.9293079047       -0.4129231571       -0.8152588542
 C          6.6939790406       -0.1684499467        0.4929423508
 C          6.5869904255        1.2499962115        1.0544149915
 H          7.3382770657        1.3406462463        1.8414728839
 H          6.8438154369        1.9684765192        0.2753726811
 C          5.2123134597        1.5968455036        1.6432886808
 H          5.3430007900        2.0897000590        2.6093656698
 H          4.6517883335        0.6774327379        1.8280954791
 C          4.3658175716        2.5254443356        0.7722713816
 H          4.8557776548        3.4981996148        0.6896005592
 H          3.4024500875        2.6768880912        1.2667754835
 C          4.0950867739        1.9927290743       -0.6409735373
 H          3.3137599372        2.6070062324       -1.0956096652
 H          4.9963909284        2.0653052606       -1.2493174194
 H          7.7478941610       -0.3800797614        0.2985157992
 H          6.3443846322       -0.8834545840        1.2413456030
 H          6.1868996623        0.3609779587       -1.5388185875
 H          6.2354030440       -1.3811822945       -1.2171860463
 O          3.9962226521       -1.7561365169       -0.5626726510
 C          2.6539147987       -2.0395363750       -0.3694235001
 O          2.3965559932       -3.2576150027       -0.2979396595
 O          1.3672816051        1.3503675818       -0.4662826013
 C          0.2891480763       -1.3633770685       -0.0766249562
 C         -0.6060454072       -0.5910684700       -1.0128068790
 C         -0.5044510505       -0.8268847955       -2.3816902141
 C         -1.3011002630       -0.1414531454       -3.2776162986
 C         -2.2336190016        0.7767442981       -2.8267332055
 C         -2.3412886440        1.0202043167       -1.4633174355
 C         -1.5307991796        0.3383619580       -0.5654636743
 H         -1.6005442489        0.5833239989        0.4803864866
 N         -3.2737618352        1.9446090061       -0.9742288701
 S         -4.0230921283        1.6908333349        0.4925093482
 O         -5.2671285099        2.4249231180        0.3913881011
 O         -3.1630403123        2.0702210683        1.5845936182
 C         -4.3570949577       -0.0617911634        0.5611209631
 C         -5.0567963839       -0.6423714360       -0.4782424765
 C         -5.3133851503       -2.0030074650       -0.4364652898
 C         -4.8714809736       -2.7570304546        0.6399522458
 C         -4.1786311543       -2.1584054078        1.6804354749
 C         -3.9170089251       -0.7978910889        1.6418787926
 H         -3.3767483282       -0.2928491043        2.4269140624
 H         -3.8378360522       -2.7457073789        2.5184574649
 H         -5.0688709325       -3.8169460539        0.6697407805
 H         -5.8545116043       -2.4715476757       -1.2425469422
 H         -5.3946401208       -0.0293587354       -1.2977016750
 H         -3.8934935174        2.3435570236       -1.6627749442
 H         -2.8593402928        1.3125920133       -3.5241170098
 H         -1.2030682829       -0.3278589398       -4.3364861199
 H          0.2218020642       -1.5473422124       -2.7334516407
 H          0.2311230402       -2.4274011814       -0.3596106247
 C         -0.1642437523       -1.2748565714        1.3730227128
 C          0.7850683983       -1.5364917050        2.5026610489
 C          0.2526371301       -0.1548374641        2.2759099634
 H         -0.4727529413        0.2450543576        2.9702273450
 H          0.9148924840        0.5942489418        1.8709386355
 H          0.4277286989       -2.0945366465        3.3548376207
 H          1.8177171253       -1.7344751436        2.2538285623
 H         -1.1757332041       -1.6495826845        1.4983012649
