  62
        -98.94339400
 C          1.8770111377        0.8314132317        0.6929761059
 C          2.2320902100        0.4367524305       -0.6196538189
 C          3.6699763957        0.4628442388       -0.9253300489
 C          4.5378257611        0.8772840096        0.0158008822
 C          6.0301422726        0.8972213554       -0.1426096342
 C          6.6551910022       -0.4191009358        0.3405886051
 C          5.9771947119       -1.6679368333       -0.2232651779
 H          6.5197718107       -2.5342714046        0.1615038786
 H          4.9585410165       -1.7282879062        0.1670071247
 C          5.9351391384       -1.7299212395       -1.7565256450
 H          6.6676639352       -1.0387761645       -2.1750251633
 H          6.2201256461       -2.7352682584       -2.0738191625
 C          4.5614151599       -1.4427829331       -2.3657380720
 H          3.8069965186       -2.0682893223       -1.8815413544
 H          4.5923808998       -1.7258656261       -3.4212386690
 C          4.0925265092        0.0161295352       -2.2965155085
 H          4.8688646383        0.6720459086       -2.6953683029
 H          3.2039456229        0.1091712898       -2.9275318563
 H          7.7117070117       -0.4213241031        0.0664513325
 H          6.5869954587       -0.4550925593        1.4304503082
 H          6.2778603376        1.0672334666       -1.1884422964
 H          6.4288241859        1.7189070671        0.4546676559
 O          4.1535714042        1.2823009497        1.2538964240
 C          2.8201493566        1.2535097071        1.6288247607
 O          2.6058725148        1.6201017265        2.8026905967
 H         -2.0896943926        0.0971069252        0.2395652711
 C         -1.4709508521       -0.7518478503        0.4784779113
 C         -0.1726261338       -0.5663996017        0.9283818029
 C          0.5877580538       -1.6893249375        1.2443934223
 C          0.0726740152       -2.9607258023        1.0863093916
 C         -1.2228870076       -3.1409402793        0.6348367930
 C         -1.9988083443       -2.0284267026        0.3374538744
 N         -3.3161261723       -2.1741658607       -0.1225679088
 S         -4.5139352511       -1.1653923388        0.4672460163
 O         -4.2506222063       -0.7655256141        1.8298030174
 O         -5.7458975174       -1.8939431323        0.2475177389
 C         -4.4959602762        0.2542470221       -0.6065733341
 C         -4.7776725197        1.4959816244       -0.0725630192
 C         -4.8181952001        2.5960444107       -0.9153717799
 C         -4.5766904594        2.4354434561       -2.2709035904
 C         -4.2962205139        1.1810405909       -2.7914106824
 C         -4.2596160649        0.0765495837       -1.9553405123
 H         -4.0423657553       -0.9108834575       -2.3268181453
 H         -4.1056148649        1.0605273314       -3.8457285955
 H         -4.6055841143        3.2929577000       -2.9246170418
 H         -5.0360902681        3.5720674168       -0.5112978677
 H         -4.9462333501        1.5780971647        0.9893924847
 H         -3.6376295375       -3.1285718364       -0.1948831354
 H         -1.6289607809       -4.1339090047        0.5146125690
 H          0.6810685943       -3.8204265536        1.3247684341
 H          1.5964895891       -1.5513746415        1.6102961420
 C          0.4204307673        0.8093489858        1.1157917639
 H          0.4100548343        1.0365267942        2.1926984546
 C         -0.3425258717        1.8949674538        0.3835031570
 C         -1.5017461153        2.5846088860        1.0356429769
 C         -0.2043884565        3.3114131994        0.8516645122
 H         -0.1527717930        4.0968219125        0.1129497186
 H          0.4153028974        3.4859862461        1.7194844037
 H         -1.7752150542        2.2716620052        2.0324698678
 H         -2.3400469408        2.8717863906        0.4189446239
 H         -0.3851517142        1.7211273290       -0.6857163220
 O          1.3953842854        0.0778795471       -1.4879010636
