  62
        -98.93661342
 C          1.2349446727        1.7069451024        0.4705966203
 C          1.4772164377        0.4091312662        0.9873065243
 C          2.7311746731       -0.2320275218        0.5729177203
 C          3.5809411321        0.4313790429       -0.2318180901
 C          4.9434694713       -0.0274769729       -0.6815392178
 C          4.9878053929       -1.2567409695       -1.6093824143
 C          5.1717830656       -2.5932272272       -0.8802058568
 H          5.8500664224       -3.2198828824       -1.4629213676
 H          5.6622892533       -2.4061690102        0.0758435661
 C          3.8944445873       -3.4062669475       -0.6507978593
 H          3.6136506755       -3.8985357178       -1.5845078236
 H          4.1209949981       -4.1870078239        0.0782273739
 C          2.6804649113       -2.6128226105       -0.1683845659
 H          1.9024569087       -3.3187758555        0.1243144464
 H          2.2691795083       -2.0306267967       -0.9965415102
 C          2.9641645167       -1.6511566891        1.0017358820
 H          2.2706974737       -1.8464676345        1.8218495410
 H          3.9810999414       -1.7797222502        1.3697291753
 H          4.0913006673       -1.2784379692       -2.2284436017
 H          5.8383146608       -1.1145129344       -2.2782405337
 H          5.3769928606        0.8271691865       -1.2051216281
 H          5.5544587944       -0.2214207951        0.2031201999
 O          3.3063572700        1.6740851851       -0.7129006312
 C          2.1164962470        2.3242000851       -0.4166685247
 O          1.9888072350        3.4228489365       -0.9895949069
 H         -1.4541077327        0.1963575676        0.2546630273
 C         -1.6515208272        0.9792129243       -0.4624958936
 C         -1.0290137967        2.2125069594       -0.3099843334
 C         -1.2710489289        3.2058093928       -1.2503477394
 C         -2.1207746136        2.9624878842       -2.3153431597
 C         -2.7563053965        1.7414792448       -2.4515963560
 C         -2.5190177602        0.7404408246       -1.5157403252
 N         -3.1375019431       -0.5145834970       -1.6223611216
 S         -3.7458606460       -1.2466096017       -0.2406683452
 O         -4.7903918766       -2.1217376081       -0.7328260591
 O         -4.1532438857       -0.2648688843        0.7372902659
 C         -2.4208085785       -2.2536602724        0.3870670670
 C         -1.9966068870       -2.0964980596        1.6903197564
 C         -1.0024050403       -2.9294585568        2.1771629462
 C         -0.4574373496       -3.9034549240        1.3566077475
 C         -0.8932654586       -4.0480958675        0.0473533144
 C         -1.8851854951       -3.2169720236       -0.4451672395
 H         -2.2567333803       -3.3031585494       -1.4528271185
 H         -0.4627243035       -4.8053384915       -0.5886253929
 H          0.3112535923       -4.5553463264        1.7425644737
 H         -0.6547505959       -2.8069864330        3.1900254376
 H         -2.4428240804       -1.3243702724        2.2968442206
 H         -3.7798556582       -0.6035268069       -2.3965580485
 H         -3.4287613430        1.5599995699       -3.2766445216
 H         -2.2983522233        3.7387721912       -3.0444481297
 H         -0.7786905917        4.1598393348       -1.1575793307
 C         -0.0753934531        2.3798399849        0.8475671488
 H         -0.4714619703        1.7905054010        1.6864689947
 C          0.0954898815        3.8120371319        1.3030487973
 C         -1.0361505878        4.4841528672        2.0197572279
 C          0.2050391185        4.1043784257        2.7683346228
 H          0.8752066131        4.8884238718        3.0875254704
 H          0.1533338231        3.2693680645        3.4517807690
 H         -1.2213908860        5.5297438756        1.8270056792
 H         -1.9307411090        3.9035546389        2.1904704250
 H          0.6999434155        4.4110338451        0.6340776185
 O          0.6866636048       -0.1815850759        1.7699560359
