  62
        -98.94626027
 C         -2.3929364344       -0.5063985907       -0.0122581686
 C         -1.4014355278       -0.7154736427        0.9737355508
 C         -0.7269804568       -2.0190423016        0.9501284676
 C         -1.0759302076       -2.9192587876        0.0134353480
 C         -0.3858915787       -4.2312883336       -0.2276409319
 C          0.9235036168       -3.9845538826       -1.0060212529
 C          2.1950976249       -4.3329897068       -0.2314193824
 H          2.3103904944       -5.4191552660       -0.2058582755
 H          3.0361628743       -3.9223075111       -0.7947469757
 C          2.2609335715       -3.8170761271        1.2094014748
 H          1.6873254773       -4.4783227946        1.8610857732
 H          3.3031316004       -3.8914871834        1.5269079646
 C          1.7817564250       -2.3754000186        1.4235089813
 H          1.8549528316       -1.8052325967        0.4962498994
 H          2.4467300180       -1.8960907707        2.1455175094
 C          0.3472992372       -2.2573214344        1.9742453112
 H          0.1038180964       -3.1460427607        2.5629820840
 H          0.2985615015       -1.3927340546        2.6423367400
 H          0.9143051146       -4.5681635920       -1.9285302095
 H          0.9564189296       -2.9330047098       -1.3027817363
 H         -0.1825949385       -4.7244425840        0.7204129584
 H         -1.0625334399       -4.8564175879       -0.8110225329
 O         -2.0596069298       -2.6970005069       -0.8969792491
 C         -2.7187498824       -1.4796674139       -0.9535568654
 O         -3.5632107809       -1.3894842015       -1.8697616924
 H         -0.8608766485        0.6721231063       -1.6338714546
 C         -0.8965120791        1.6170762336       -1.1112647629
 C         -1.9750081689        1.9072287731       -0.2849755043
 C         -2.0026238064        3.1390052049        0.3567465043
 C         -0.9589874391        4.0352275683        0.1988351865
 C          0.1409880733        3.7151804311       -0.5761078340
 C          0.1713676747        2.4903080041       -1.2329005060
 N          1.2732693328        2.1021646720       -2.0230103039
 S          2.1162694838        0.7251634308       -1.5712206141
 O          3.1926693136        0.6176488646       -2.5331344536
 O          1.2229966596       -0.4014620767       -1.4915862505
 C          2.8024267332        1.1191655821        0.0282491557
 C          4.1415528179        1.4522845939        0.1039537092
 C          4.6773099668        1.8115456827        1.3297008791
 C          3.8655718364        1.8408137954        2.4539180824
 C          2.5232306426        1.5091606248        2.3590624700
 C          1.9797079476        1.1445769734        1.1363455265
 H          0.9385479209        0.8759830750        1.0503970578
 H          1.8833662835        1.5286716744        3.2268056916
 H          4.2801991115        2.1225349703        3.4090030725
 H          5.7218205398        2.0682013717        1.4038998323
 H          4.7326354240        1.4127602719       -0.7967778351
 H          1.9340633377        2.8480306626       -2.1935728990
 H          0.9686734010        4.4015841096       -0.6732554902
 H         -0.9931268692        4.9877238505        0.7052491443
 H         -2.8377163384        3.3937416739        0.9886600029
 C         -3.0503790957        0.8573551963       -0.1289405602
 H         -3.6502679033        0.8318630432       -1.0507669251
 C         -3.9696048950        1.1097681117        1.0482883505
 C         -5.1927642941        1.9602947502        0.8863673279
 C         -5.3275742983        0.4771025319        1.0509629120
 H         -5.7156905016        0.0917988718        1.9817878417
 H         -5.5977736084       -0.1142929680        0.1878762319
 H         -5.4935732895        2.5932951558        1.7075717395
 H         -5.3861083825        2.3792468329       -0.0896703047
 H         -3.4347969080        1.1511430161        1.9900945390
 O         -1.0824643222        0.1576891073        1.8248447208
