  62
        -98.93914626
 C         -2.2461347948        0.1017407645       -0.2795635907
 C         -3.2816325436        0.7156525976        0.4675677063
 C         -4.4360391475       -0.1379144094        0.7815393732
 C         -4.4473802546       -1.4272277391        0.4010579984
 C         -5.5383038255       -2.4262293274        0.6762036527
 C         -6.6981839952       -2.3767580060       -0.3279396215
 C         -7.6187266261       -1.1624214577       -0.1995447695
 H         -8.5015550205       -1.3641433368       -0.8094504193
 H         -7.9518718663       -1.0684336219        0.8344319057
 C         -6.9906161263        0.1595316544       -0.6625548674
 H         -6.1106927052       -0.0499781036       -1.2752740649
 H         -7.6996317341        0.6977693729       -1.2956413642
 C         -6.5897285822        1.1021416522        0.4721724185
 H         -7.4822149752        1.4256840748        1.0122913664
 H         -6.1217997760        1.9868306720        0.0331528145
 C         -5.6033964664        0.4946131790        1.4780578144
 H         -5.2178889554        1.2985642628        2.1094472347
 H         -6.1103956119       -0.2345790296        2.1092319838
 H         -7.2972456881       -3.2778872242       -0.1777073616
 H         -6.2860737845       -2.4167278664       -1.3389595020
 H         -5.9228023224       -2.2802040688        1.6859879461
 H         -5.0753617738       -3.4137337896        0.6191105716
 O         -3.4189168149       -1.9913097780       -0.2872286555
 C         -2.3176002239       -1.2421204222       -0.6611833614
 O         -1.4747656556       -1.8793362229       -1.3265973042
 O         -3.2698525192        1.9101234070        0.8657041899
 C         -0.9905250423        0.8334611219       -0.7257489251
 C          0.0293602446        0.9274629869        0.3843926536
 C         -0.2160636133        1.6600678106        1.5413786110
 C          0.7512202330        1.7573831811        2.5244516936
 C          1.9836230546        1.1483738440        2.3663466803
 C          2.2344774995        0.4062883777        1.2183000044
 C          1.2545303717        0.2928529509        0.2420432546
 H          1.4598117195       -0.2975334441       -0.6397112849
 N          3.4660739462       -0.2420124634        1.0364442414
 S          4.0936011496       -0.3430566222       -0.5273544770
 O          3.8713860062        0.9000018614       -1.2308510135
 O          3.5833316712       -1.5345897240       -1.1584497397
 C          5.8289768321       -0.5456969726       -0.1701337887
 C          6.3070425336       -1.8077908798        0.1280129033
 C          7.6498508242       -1.9595602513        0.4354392168
 C          8.4870951816       -0.8536616558        0.4406046511
 C          7.9932166262        0.4063085319        0.1376185192
 C          6.6510867405        0.5654752733       -0.1696627267
 H          6.2242765723        1.5232539564       -0.4205323696
 H          8.6471137459        1.2634262994        0.1389690103
 H          9.5318501484       -0.9753046530        0.6791085280
 H          8.0379466249       -2.9379701431        0.6684073040
 H          5.6207717819       -2.6382748978        0.1015112121
 H          4.1653276315        0.0386362225        1.7102036474
 H          2.7431998059        1.2388612751        3.1280567950
 H          0.5482985368        2.3266199637        3.4190793399
 H         -1.1731587657        2.1431399965        1.6625139824
 H         -0.5515525658        0.2114684236       -1.5186337318
 C         -1.2671900468        2.2105417017       -1.3003901728
 C         -0.2023947493        2.8697645332       -2.1224706038
 C         -1.4532611795        2.3668848458       -2.7777299383
 H         -2.1748501266        3.0871905191       -3.1331782874
 H         -1.3867498256        1.4771153819       -3.3876366919
 H         -0.0655105616        3.9361239486       -2.0279020425
 H          0.7161377688        2.3229919107       -2.2826921434
 H         -1.8650116868        2.8364689258       -0.6514702711
