  62
        -98.93984901
 C          1.8542806798        0.9839343598        0.5131372999
 C          2.4446783897       -0.1175635302        1.1852317399
 C          3.9013188397       -0.2457086404        1.0739587897
 C          4.5986593497        0.6762598494        0.3862763095
 C          6.0915719997        0.7040244792        0.2011122493
 C          6.5926317294       -0.1751794210       -0.9527347607
 C          6.5374987392       -1.6812541010       -0.6936464605
 H          7.1145222490       -2.1638792911       -1.4849627506
 H          7.0321411193       -1.9046735509        0.2521416094
 C          5.1203710091       -2.2717488607       -0.6874736903
 H          4.4299749991       -1.5707641907       -1.1624730802
 H          5.1044158189       -3.1877365208       -1.2824587902
 C          4.5859478893       -2.6254414105        0.7006533299
 H          3.5643805892       -2.9988422904        0.5895081600
 H          5.1909872292       -3.4250820006        1.1340478698
 C          4.5543753396       -1.4484885004        1.6845854097
 H          5.5645025897       -1.2072487406        2.0154247196
 H          3.9613793797       -1.7437755403        2.5538322099
 H          6.0143560393        0.0615057290       -1.8487575106
 H          7.6320186794        0.1007281288       -1.1449774908
 H          6.3587189298        1.7406799091       -0.0149210508
 H          6.5814336898        0.4044242792        1.1279903893
 O          4.0022859498        1.7322664195       -0.2228312705
 C          2.6209083398        1.9013352497       -0.2076660403
 O          2.2373108298        2.8908971497       -0.8561396403
 O          1.7806841497       -0.9517208700        1.8585034301
 C          0.3436991998        1.1065066701        0.6097645201
 C         -0.3227990405        0.3686129101       -0.5234772197
 C          0.0548839194        0.5937117299       -1.8445443198
 C         -0.5500573509       -0.1020909601       -2.8742926497
 C         -1.5463204210       -1.0258361900       -2.6102537294
 C         -1.9301386508       -1.2591842798       -1.2948796493
 C         -1.3203042606       -0.5592300698       -0.2609651295
 H         -1.6088175605       -0.7724918896        0.7574687406
 N         -2.9274064709       -2.1975022196       -1.0044240391
 S         -3.9570842207       -2.0041866693        0.2896102010
 O         -3.2902994806       -2.3293917293        1.5252238110
 O         -5.1016974709       -2.8258968092       -0.0420672687
 C         -4.4419708105       -0.2858833393        0.2976160709
 C         -4.5538195502        0.3649749509        1.5096638009
 C         -4.9772422900        1.6849094009        1.5290213008
 C         -5.2732152201        2.3317415908        0.3394804308
 C         -5.1538575103        1.6656857407       -0.8703809292
 C         -4.7411779305        0.3431887207       -0.8949611891
 H         -4.6491448507       -0.1959092894       -1.8234010291
 H         -5.3805685404        2.1722072707       -1.7945475692
 H         -5.5948115499        3.3607700109        0.3556199607
 H         -5.0670007898        2.2032845810        2.4700576208
 H         -4.2984078101       -0.1706123191        2.4102383009
 H         -3.3805183811       -2.6162517996       -1.8024427790
 H         -2.0151012612       -1.5725149100       -3.4142293693
 H         -0.2458341110        0.0788016997       -3.8941310097
 H          0.8267552494        1.3195492797       -2.0511713900
 H          0.0795174398        0.5787745002        1.5405239902
 C         -0.1396104600        2.5435485501        0.7478869200
 C         -0.9424916100        3.2506442402       -0.2988240999
 C         -1.5970158399        2.8151634104        0.9752009202
 H         -1.8775904397        3.5642234105        1.6995345902
 H         -2.2679488600        1.9704377605        0.9288279504
 H         -0.7434773799        4.3000498101       -0.4516156601
 H         -1.1843772002        2.7175912901       -1.2042530498
 H          0.5631133102        3.1537271201        1.3056614899
