  62
        -98.94229440
 C         -1.5001362252       -1.4071019175       -0.4170331708
 C         -1.4636413690       -0.0263482138       -0.7286466258
 C         -2.3818459164        0.8310327126        0.0386065324
 C         -3.1361282114        0.2941332972        1.0125596140
 C         -4.1281253903        1.0484763975        1.8488737455
 C         -5.5259504428        1.0275602251        1.2145172885
 C         -5.5377245207        1.4070412654       -0.2661840342
 H         -5.0030175145        0.6413931639       -0.8327740490
 H         -6.5777950635        1.3867365166       -0.5986211132
 C         -4.9286208975        2.7821055133       -0.5731441824
 H         -5.5834098968        3.3072694099       -1.2716929736
 H         -4.8824108083        3.3783165206        0.3388519232
 C         -3.5409607217        2.7313953946       -1.2146784108
 H         -3.3006314543        3.7321481614       -1.5830735862
 H         -3.5613807990        2.0601223434       -2.0767777325
 C         -2.3941787139        2.2970609493       -0.2929434619
 H         -1.4538986285        2.4951164879       -0.8156138948
 H         -2.4035281900        2.8951330846        0.6209518804
 H         -6.1680545145        1.7110042312        1.7731450113
 H         -5.9346782710        0.0192758528        1.3135908742
 H         -3.7848891174        2.0744209489        1.9693812075
 H         -4.1756768739        0.5761387601        2.8317993278
 O         -3.1116988665       -1.0286598176        1.3187740125
 C         -2.2998042702       -1.9018392441        0.6163876884
 O         -2.3814772486       -3.0894160549        0.9931966593
 O         -0.7153055312        0.4874795032       -1.5994007629
 C         -0.6160414161       -2.4468677258       -1.0905032437
 C          0.6435865386       -2.6269149321       -0.2810581333
 C          1.0857065347       -3.8874025860        0.0992376594
 C          2.2144136362       -4.0226960277        0.8889770997
 C          2.9054725587       -2.9082020700        1.3269401453
 C          2.4721069398       -1.6401416967        0.9491526973
 C          1.3635100899       -1.5126240129        0.1277194737
 H          1.0279136268       -0.5319665021       -0.1607875702
 N          3.1604788884       -0.4999569277        1.3773869474
 S          2.4470425335        0.9992186333        1.6188115224
 O          3.1691829403        1.5524368471        2.7474181241
 O          1.0152567190        0.9024614951        1.7668091639
 C          2.9129035118        1.9113974374        0.1606324028
 C          2.0524812305        2.0436017994       -0.9094699811
 C          2.4788696922        2.7477466472       -2.0261552172
 C          3.7475244891        3.3036183389       -2.0567000952
 C          4.6009649808        3.1624390848       -0.9723709054
 C          4.1820492253        2.4607283095        0.1451098407
 H          4.8060177136        2.3391798338        1.0150209411
 H          5.5876108948        3.5964370306       -0.9951424911
 H          4.0708883906        3.8502178534       -2.9285868315
 H          1.8091924697        2.8504053466       -2.8651088651
 H          1.0678747119        1.6026059532       -0.8789175108
 H          3.8907417676       -0.6727738112        2.0516670895
 H          3.7705040742       -3.0136835938        1.9640113397
 H          2.5492291409       -5.0061035559        1.1826555882
 H          0.5269389767       -4.7601052085       -0.2055576291
 H         -1.1803362064       -3.3920230101       -1.0318916225
 C         -0.3501771498       -2.1686989676       -2.5623705329
 C          0.9719520553       -1.7080919731       -3.0900476065
 C          0.5122772290       -3.1089244684       -3.3519600732
 H          0.2043078903       -3.3775617566       -4.3510591950
 H          1.0027189430       -3.9039658853       -2.8105957587
 H          0.9630265881       -0.9956901062       -3.9003459532
 H          1.7771219327       -1.5566334507       -2.3881745186
 H         -1.2292719545       -1.7777327316       -3.0638380908
