  62
        -98.94964889
 C         -1.6894166344       -1.2193459824        0.3380900302
 C         -1.3276356911       -0.1578418659       -0.5237363130
 C         -1.8783278403        1.1575743282       -0.1858389361
 C         -2.6388519092        1.2991735253        0.9145105141
 C         -3.2422214515        2.5839703279        1.4139972420
 C         -4.5681819582        2.9605090264        0.7381834785
 C         -4.4490275045        3.4507976805       -0.7054101537
 H         -5.4142294454        3.8831877713       -0.9764053892
 H         -3.7082827455        4.2494387392       -0.7550395800
 C         -4.0964960556        2.3540611952       -1.7197622970
 H         -4.7471025646        2.4431270590       -2.5925444936
 H         -4.2864806870        1.3741666694       -1.2759414655
 C         -2.6536306249        2.3970348830       -2.2226228667
 H         -2.5037170154        1.5570021579       -2.9051227409
 H         -2.4873268202        3.3206718053       -2.7811198150
 C         -1.5973528256        2.3004431237       -1.1137996198
 H         -0.6236183298        2.1206301911       -1.5762250943
 H         -1.5450318956        3.2355036046       -0.5559609771
 H         -5.0207395452        3.7567138852        1.3337941447
 H         -5.2357825774        2.0966027926        0.7765204655
 H         -3.4256682320        2.4448320062        2.4818691033
 H         -2.5223340674        3.3942566216        1.2922205213
 O         -2.9401328474        0.2587345041        1.7372828668
 C         -2.4750114047       -1.0190216820        1.4709386099
 O         -2.8230237403       -1.8795870276        2.3073310208
 H          0.4991469804       -1.1911577117        1.6235357670
 C          1.0451629684       -1.7592255427        0.8840372355
 C          0.3578996585       -2.5668577365       -0.0131514914
 C          1.0905533279       -3.2956553377       -0.9420592403
 C          2.4701795577       -3.1903879499       -0.9868656588
 C          3.1446528280       -2.3431037809       -0.1267497074
 C          2.4210537839       -1.6190918620        0.8135129084
 N          3.0533566320       -0.7244595301        1.7031171659
 S          2.6506060911        0.8979561483        1.5664248051
 O          3.4848773676        1.5715001064        2.5393166224
 O          1.2287863315        1.0710719043        1.7158539903
 C          3.1847512347        1.3492437089       -0.0754927023
 C          4.4020846359        1.9877010320       -0.2202943380
 C          4.8583994847        2.2851203614       -1.4938835786
 C          4.0975445342        1.9307250947       -2.5980440903
 C          2.8813309755        1.2861879391       -2.4351550058
 C          2.4151548843        0.9884215604       -1.1632231650
 H          1.4683609872        0.4908320909       -1.0183348190
 H          2.2828670811        1.0061441549       -3.2873349172
 H          4.4526842611        2.1582400433       -3.5907830366
 H          5.8033965103        2.7881981681       -1.6211634015
 H          4.9564832870        2.2453318431        0.6677597825
 H          4.0609913347       -0.8103408528        1.7158036699
 H          4.2179650788       -2.2392687067       -0.1799254535
 H          3.0255433158       -3.7614323045       -1.7150231846
 H          0.5795156893       -3.9419305967       -1.6368813994
 C         -1.1486937781       -2.6133167418        0.0771030065
 H         -1.4253598115       -3.2190101031        0.9529453229
 C         -1.8037227143       -3.2050363495       -1.1549267645
 C         -2.0354148678       -4.6820018401       -1.2572986856
 C         -3.1923011184       -3.7552560336       -1.0384406797
 H         -3.8840317442       -3.5884576120       -1.8504717416
 H         -3.6526827251       -3.7283310965       -0.0611188234
 H         -1.7182821529       -5.2971730893       -0.4287877478
 H         -1.9371087131       -5.1543442844       -2.2231043212
 H         -1.5558504876       -2.6593278211       -2.0582138041
 O         -0.5759395081       -0.3025796244       -1.5239468863
