  62
        -98.94443543
 C          1.9479022180        1.0890225415       -0.2087304392
 C          2.4367171997       -0.0758727192       -0.8471965532
 C          3.8925771804       -0.2737490286       -0.7849031412
 C          4.6587229554        0.6456161398       -0.1698468196
 C          6.1449445208        0.5416300832        0.0109424871
 C          6.4962146382       -0.1477575028        1.3368795885
 C          5.7401585119       -1.4553447377        1.5726889689
 H          6.0904199055       -1.8668712638        2.5217701533
 H          4.6762391323       -1.2369371696        1.6898999891
 C          5.9208051890       -2.5019390397        0.4643979973
 H          6.7987131575       -2.2590959750       -0.1354007302
 H          6.1033288531       -3.4741293129        0.9270904449
 C          4.7094664957       -2.6673895406       -0.4554140417
 H          3.8088323387       -2.8177705915        0.1455947046
 H          4.8574090832       -3.5706213210       -1.0535039017
 C          4.4488260389       -1.5117516339       -1.4298811713
 H          5.3619490752       -1.2830836188       -1.9833607608
 H          3.6884134034       -1.8441933150       -2.1428518648
 H          7.5707582099       -0.3387738915        1.3522458974
 H          6.2607434255        0.5362213240        2.1554786798
 H          6.5689627750       -0.0138163662       -0.8232457676
 H          6.5623548878        1.5499244160        0.0141732539
 O          4.1535647815        1.7654136779        0.4081221104
 C          2.7900021179        2.0087011035        0.4160088677
 O          2.4562275695        3.0577186078        1.0030997233
 H         -1.6839893846       -0.0837173110       -1.1998710458
 C         -1.3488169294       -0.4117784022       -0.2309090929
 C         -0.2857001035        0.2110861877        0.4022837035
 C          0.1182774989       -0.2627069729        1.6488204831
 C         -0.5092678140       -1.3455319275        2.2314705781
 C         -1.5646218524       -1.9717675119        1.5907131108
 C         -1.9827230449       -1.5021288162        0.3523727953
 N         -3.0406352058       -2.1290101370       -0.3252015014
 S         -4.2374153289       -1.2219398868       -1.0572733017
 O         -5.3153188256       -2.1599912532       -1.2803792407
 O         -3.7234503589       -0.5530669897       -2.2242289553
 C         -4.7122719002       -0.0353794089        0.1861890637
 C         -5.5406362241       -0.4587188764        1.2076027692
 C         -5.8678033830        0.4302080996        2.2181277580
 C         -5.3563136564        1.7190936091        2.1949156209
 C         -4.5274934667        2.1286600371        1.1621392476
 C         -4.1995831133        1.2449036052        0.1458086117
 H         -3.5625630082        1.5283067243       -0.6755397361
 H         -4.1326909272        3.1320906102        1.1442910525
 H         -5.6069753074        2.4100823221        2.9842867685
 H         -6.5165620608        0.1168068080        3.0201006971
 H         -5.9258952196       -1.4651903653        1.1825798526
 H         -3.4365677365       -2.9200916094        0.1610008784
 H         -2.0505833393       -2.8248253627        2.0393246398
 H         -0.1767147381       -1.7064983456        3.1931343345
 H          0.9448173894        0.2258104465        2.1475638631
 C          0.4569557813        1.3784401759       -0.2002804118
 H          0.3214262978        2.2498986906        0.4568663705
 C         -0.0088001052        1.7443964802       -1.5937312023
 C         -1.1564943790        2.6886243130       -1.7820075159
 C          0.2390454053        3.1316188525       -2.1020078849
 H          0.5188717637        3.2589230550       -3.1369963586
 H          0.7223678382        3.8259275541       -1.4298482288
 H         -1.8426367945        2.5103398337       -2.5971418093
 H         -1.6156006029        3.0963443395       -0.8938022899
 H          0.1047049085        0.9307007039       -2.3014254589
 O          1.6999503451       -0.9088717986       -1.4369207923
