  62
        -98.94415952
 C          2.2526098359        0.8688287458        0.3973180997
 C          2.4448020123       -0.0072155654       -0.6986770158
 C          3.2862756282       -1.1810290250       -0.4322922689
 C          3.7768503391       -1.3879281076        0.8032001576
 C          4.6325540617       -2.5484829430        1.2334995115
 C          6.1270878678       -2.3650404234        0.9354822325
 C          6.5158528852       -2.4789888024       -0.5391371708
 H          7.6047535722       -2.5483534860       -0.5780742707
 H          6.1158982124       -3.4072431698       -0.9482820769
 C          6.0656671532       -1.2952106767       -1.4066597901
 H          5.8130031187       -0.4482080568       -0.7645786571
 H          6.8928007344       -0.9766477206       -2.0449874890
 C          4.8773872647       -1.5948298989       -2.3206110298
 H          5.1621743423       -2.3501065207       -3.0563433939
 H          4.6201648287       -0.6794656157       -2.8593831257
 C          3.6213783841       -2.0791978479       -1.5844646661
 H          3.7574528802       -3.1048667173       -1.2423347365
 H          2.7808708170       -2.0495986749       -2.2821197362
 H          6.6663193119       -3.1351693519        1.4918799398
 H          6.4433730752       -1.3933978260        1.3220155648
 H          4.5063719227       -2.6442203974        2.3142134615
 H          4.2753233464       -3.4633434015        0.7598041362
 O          3.5231509998       -0.5478101203        1.8433101773
 C          2.7738342511        0.6043736998        1.6626527988
 O          2.6332483823        1.2932873213        2.6951581679
 O          1.9411730669        0.1767982752       -1.8360491248
 C          1.4288130711        2.1304165276        0.2177641424
 C          0.0237179178        1.7833295131       -0.2137612611
 C         -0.6552583701        2.4622411321       -1.2167504176
 C         -1.9495569950        2.1040917744       -1.5529103498
 C         -2.5939566207        1.0699455903       -0.9000880839
 C         -1.9304712835        0.3943274185        0.1160657730
 C         -0.6363391642        0.7587354927        0.4537209552
 H         -0.1213149447        0.2325699833        1.2493505346
 N         -2.5734457353       -0.6641532348        0.7823216763
 S         -4.1120516804       -0.3940218581        1.3996177191
 O         -4.3076639318        0.9956618603        1.7425436609
 O         -4.2604251035       -1.3490177478        2.4762800904
 C         -5.1947393805       -0.8540337527        0.0633198342
 C         -6.1261710438        0.0477044881       -0.4128940550
 C         -6.9620727000       -0.3377061654       -1.4495515416
 C         -6.8530514843       -1.6109814340       -1.9872266829
 C         -5.9139867126       -2.5056109392       -1.4955126071
 C         -5.0758399944       -2.1269957583       -0.4590886452
 H         -4.3352293376       -2.7918188797       -0.0465539718
 H         -5.8318342767       -3.4949229227       -1.9160792371
 H         -7.5038073107       -1.9084571420       -2.7942623917
 H         -7.6928227477        0.3559464333       -1.8331933850
 H         -6.1708468040        1.0286520958        0.0328000034
 H         -1.9920507318       -1.1213766322        1.4696923863
 H         -3.5985242418        0.7835204475       -1.1647188756
 H         -2.4623591787        2.6361501194       -2.3395185804
 H         -0.1698874626        3.2700422417       -1.7390861968
 H          1.3687663686        2.5996479354        1.2114445078
 C          2.1346827020        3.0800818114       -0.7281795902
 C          1.9705527199        4.5615982016       -0.5771211806
 C          3.2671188542        3.9093424890       -0.2044366046
 H          4.1273884534        4.0676532396       -0.8373460300
 H          3.5095698993        3.8102892267        0.8441132501
 H          1.9439530345        5.1715474856       -1.4674712570
 H          1.3352418643        4.9160487882        0.2206312294
 H          2.2335157468        2.6724703779       -1.7275672440
