  62
        -98.94291263
 C         -2.6521913005       -1.1831422893        0.2504819861
 C         -2.7705299633       -0.3289118952       -0.8725160628
 C         -3.7720003213        0.7433644182       -0.7631824191
 C         -4.5177795026        0.8485051376        0.3508297528
 C         -5.5250976395        1.9287726046        0.6148722128
 C         -4.8823685942        3.1215081854        1.3368738901
 C         -3.5869317484        3.6111649351        0.6894213840
 H         -3.2416791096        4.4729161654        1.2646768555
 H         -2.8241721249        2.8348080966        0.7856172146
 C         -3.7251224951        4.0050858198       -0.7878684586
 H         -4.7754337931        4.1694765782       -1.0311167512
 H         -3.2034427727        4.9509006810       -0.9483996795
 C         -3.1300700951        2.9962379157       -1.7720901269
 H         -3.0845431171        3.4683398228       -2.7572715194
 H         -2.1051102105        2.7572126619       -1.4764694830
 C         -3.9054879357        1.6820181586       -1.9296946992
 H         -4.9562870352        1.8965394292       -2.1338355932
 H         -3.4898835417        1.1520476209       -2.7917759621
 H         -5.6069379254        3.9372078290        1.3676951784
 H         -4.6599623918        2.8248893699        2.3644319072
 H         -5.9598859240        2.2525198187       -0.3287223917
 H         -6.3141776464        1.5158314282        1.2454803199
 O         -4.3982248543       -0.0054974164        1.3979607530
 C         -3.4651788063       -1.0255956100        1.3791475095
 O         -3.4578907014       -1.7263941083        2.4106094721
 O         -2.0859670276       -0.4300553933       -1.9272129718
 C         -1.6603997010       -2.3346642643        0.3276386392
 C         -0.2674879211       -1.8423730861        0.6437522652
 C          0.3631012922       -2.2064388446        1.8278382889
 C          1.6428356976       -1.7615272099        2.1096228335
 C          2.3169649730       -0.9418667767        1.2221060094
 C          1.6956556050       -0.5715743157        0.0365926988
 C          0.4157908378       -1.0273322985       -0.2474236423
 H         -0.0659841793       -0.7311271938       -1.1675223098
 N          2.3547261589        0.2846498894       -0.8611677953
 S          3.9430795554       -0.0498726838       -1.2821834654
 O          4.1371866919        0.5840819932       -2.5678242807
 O          4.2243057238       -1.4653576325       -1.2147523344
 C          4.9001235644        0.8208139764       -0.0584373747
 C          4.6652852160        2.1711171046        0.1116607131
 C          5.4083786534        2.8662066335        1.0522380758
 C          6.3703237433        2.2039657601        1.8005715481
 C          6.5965825955        0.8487590216        1.6155026005
 C          5.8559919341        0.1474616187        0.6765861570
 H          5.9935125526       -0.9078162126        0.5020735996
 H          7.3450040608        0.3358686881        2.1979242530
 H          6.9468681787        2.7476169712        2.5322527385
 H          5.2349866100        3.9201530497        1.1989115976
 H          3.9109636698        2.6488236131       -0.4912117397
 H          1.8031488203        0.5122420833       -1.6761177723
 H          3.3127589347       -0.5905723186        1.4379647278
 H          2.1201118447       -2.0529499767        3.0327651955
 H         -0.1623281916       -2.8340087825        2.5330886372
 H         -1.9945623121       -2.9522131152        1.1718965669
 C         -1.6581152938       -3.1980732576       -0.9196996623
 C         -1.1590894375       -4.6070727304       -0.8254580221
 C         -2.6209830686       -4.3405685759       -1.0214773379
 H         -3.0632335718       -4.5573260549       -1.9822908753
 H         -3.2864618381       -4.5085713181       -0.1869758863
 H         -0.5925646668       -5.0089586531       -1.6515759081
 H         -0.8337787350       -4.9588333864        0.1419657299
 H         -1.4446800990       -2.6480462136       -1.8266424662
