  62
        -98.93804706
 C         -2.4900774681       -1.1854160851       -0.0791611928
 C         -3.2079175410       -0.4671567833        0.9032841848
 C         -4.0138536229        0.6704233495        0.4268719509
 C         -4.0221713804        0.9583419470       -0.8865733697
 C         -4.7256656145        2.0998560120       -1.5671450335
 C         -3.7806750771        3.3035478043       -1.7223037942
 C         -3.7437068416        4.2523443654       -0.5247185916
 H         -2.9447050389        4.9749243399       -0.7062601939
 H         -4.6827102578        4.8076136734       -0.4776678376
 C         -3.5038714886        3.5855482021        0.8326154042
 H         -2.7217310989        2.8294734539        0.7384255366
 H         -3.1322147329        4.3484084111        1.5198398199
 C         -4.7716332848        2.9554818667        1.4290087709
 H         -4.9007314046        3.3067644543        2.4548730187
 H         -5.6390304971        3.3069907459        0.8707064564
 C         -4.7805386117        1.4198601980        1.4824183942
 H         -4.3443998184        1.0867075449        2.4296918966
 H         -5.8178014051        1.0689454400        1.4767560577
 H         -2.7768867859        2.9174550888       -1.9181008020
 H         -4.0858020498        3.8784269458       -2.5988401707
 H         -5.0029453991        1.7453437325       -2.5619421564
 H         -5.6275603542        2.3737912120       -1.0280473849
 O         -3.3090292301        0.2439661842       -1.7996824025
 C         -2.5185745909       -0.8301571520       -1.4277527047
 O         -1.9085776492       -1.3710970456       -2.3679094621
 O         -3.1667259887       -0.7542812195        2.1319405641
 C         -1.6262238244       -2.3580163621        0.3467224236
 C         -0.1778256093       -2.0814186430        0.0229321988
 C          0.6601539912       -3.0029795446       -0.5900327428
 C          1.9823299222       -2.6837356801       -0.8489998948
 C          2.4975591793       -1.4486783789       -0.5028746744
 C          1.6728465834       -0.5239941796        0.1251801020
 C          0.3510605809       -0.8486341481        0.3869111878
 H         -0.2897679363       -0.1275621617        0.8806887795
 N          2.1833603826        0.7387635589        0.4744993083
 S          3.6145631492        0.8009905952        1.3519548401
 O          3.7843396545       -0.3772965576        2.1702210371
 O          3.5738458084        2.0678582589        2.0492748139
 C          4.8814432166        0.8665720088        0.1031113388
 C          5.8976644667       -0.0686444941        0.1025851452
 C          6.8786281324        0.0087732512       -0.8739017169
 C          6.8264105818        1.0147909019       -1.8264257192
 C          5.8001702659        1.9477655623       -1.8104267430
 C          4.8172210605        1.8768267787       -0.8363726155
 H          4.0055949672        2.5834833821       -0.7868062020
 H          5.7624258138        2.7284147319       -2.5530544378
 H          7.5898511090        1.0724898921       -2.5860946281
 H          7.6773496718       -0.7151975373       -0.8879691030
 H          5.8939864519       -0.8360971925        0.8600752416
 H          1.4947726820        1.3556600297        0.8805106290
 H          3.5242674636       -1.1950622497       -0.7099871637
 H          2.6200403195       -3.4077959330       -1.3325750566
 H          0.2777298793       -3.9705419176       -0.8700295339
 H         -1.7225340410       -2.4097950508        1.4420434251
 C         -2.1486648466       -3.6483678224       -0.2483090426
 C         -1.9381335751       -4.9489896957        0.4659454968
 C         -3.3035733544       -4.3341599301        0.4158231718
 H         -4.0567125835       -4.7946444173       -0.2056970805
 H         -3.6968588433       -3.8834935124        1.3155763407
 H         -1.7558962700       -5.8363998027       -0.1211423904
 H         -1.4053816490       -4.9233753678        1.4046273262
 H         -2.1241190306       -3.6463073005       -1.3320905927
