  62
        -98.93490912
 C         -2.5015027984       -1.2804081017        0.4269574870
 C         -2.4351188882       -0.5063623291       -0.7561775625
 C         -3.3276327826        0.6696075093       -0.8200316966
 C         -4.1162616662        0.9559457311        0.2292004516
 C         -5.0600885063        2.1165046757        0.3840735877
 C         -4.3691261106        3.2902091865        1.0983761333
 C         -3.6075277373        4.2454667113        0.1801985502
 H         -4.3227137847        4.8268625625       -0.4053564343
 H         -3.0609332583        4.9442571337        0.8177901712
 C         -2.6174259647        3.5812931633       -0.7805390838
 H         -1.8974011576        4.3386006212       -1.0977898992
 H         -2.0523873803        2.8077302328       -0.2557847318
 C         -3.2919957033        2.9836901273       -2.0244908000
 H         -2.7846461224        3.3493916729       -2.9196828195
 H         -4.3189059344        3.3443911561       -2.0812645830
 C         -3.2754160536        1.4506757420       -2.1047965720
 H         -4.0966293926        1.1186746940       -2.7492187143
 H         -2.3482302114        1.1246527339       -2.5876566956
 H         -5.1244865597        3.8680433430        1.6346430738
 H         -3.6863884417        2.8739126976        1.8438256709
 H         -5.4586786314        2.4211280985       -0.5788499173
 H         -5.8823961406        1.7651074608        1.0109120342
 O         -4.1120327927        0.2116099170        1.3701395643
 C         -3.3042484237       -0.9020712709        1.5051466173
 O         -3.3813644316       -1.4588600429        2.6189103226
 H         -0.0837761776       -0.6187153917        1.6090204038
 C          0.4407672819       -1.1786780480        0.8428134921
 C         -0.2186252847       -2.2210283820        0.2022793174
 C          0.4572816793       -2.9229996045       -0.7860863791
 C          1.7556978456       -2.5809404485       -1.1220349345
 C          2.4080659674       -1.5439381657       -0.4812659805
 C          1.7391951746       -0.8309930460        0.5052715281
 N          2.3953709746        0.2178279020        1.1739417379
 S          3.1887833904        1.3823745687        0.2597712680
 O          3.2199162830        2.5584549848        1.1029561979
 O          2.5911141231        1.5421956706       -1.0450126740
 C          4.8423028063        0.7396782127        0.1046198123
 C          5.5374555400        0.4441357148        1.2609338792
 C          6.8260383578       -0.0548163288        1.1579251895
 C          7.3958245706       -0.2455549388       -0.0922141391
 C          6.6866197210        0.0606488139       -1.2435054557
 C          5.3965280984        0.5590315107       -1.1473469950
 H          4.8048124703        0.8063320390       -2.0145532800
 H          7.1312285539       -0.0871120722       -2.2145267918
 H          8.3987528956       -0.6346294981       -0.1698067456
 H          7.3807918664       -0.2935763441        2.0509719482
 H          5.0600448426        0.6112192355        2.2119808800
 H          1.8324025626        0.6560929015        1.8886158477
 H          3.4169026521       -1.2722256198       -0.7455029302
 H          2.2668939373       -3.1293437498       -1.8985852851
 H         -0.0416477873       -3.7185169680       -1.3142917296
 C         -1.6373542784       -2.5144770360        0.6257301665
 H         -1.6310531740       -2.6800244081        1.7162127719
 C         -2.2051691659       -3.7810111188        0.0029553702
 C         -3.6844282063       -3.9657813266       -0.1535109952
 C         -2.8172925545       -3.8030902283       -1.3639427105
 H         -2.6439992504       -4.6678526266       -1.9877622400
 H         -2.8584419251       -2.8735011806       -1.9087543882
 H         -4.1042777442       -4.9383675632        0.0549615672
 H         -4.3246346209       -3.1439341739        0.1334756554
 H         -1.6429705146       -4.6611371619        0.2994598933
 O         -1.6727860023       -0.7691459518       -1.7216637231
