  62
        -98.94492168
 C         -2.4525152067       -1.2089482680       -0.0971308670
 C         -3.3335176493       -0.5927930770        0.8306424109
 C         -4.0574941297        0.5926946029        0.3577701054
 C         -3.8596824916        1.0217609292       -0.9016916013
 C         -4.4782494443        2.2524392502       -1.4970097842
 C         -3.5759561979        3.4779785923       -1.2952464843
 C         -3.0833297279        3.6541818261        0.1413933738
 H         -2.4121037917        2.8286482129        0.3918602146
 H         -2.4850911656        4.5677076963        0.1687385056
 C         -4.2006657802        3.7410167040        1.1907860383
 H         -3.9713842630        4.5588986400        1.8769485782
 H         -5.1466759367        3.9812615807        0.7043242002
 C         -4.3729771082        2.4811777695        2.0414064136
 H         -5.0253723635        2.7265950569        2.8834916444
 H         -3.4050574814        2.1827567014        2.4521287133
 C         -4.9859052965        1.2712214005        1.3251138574
 H         -5.2268299783        0.5221236283        2.0848467744
 H         -5.9113421744        1.5674514634        0.8275108593
 H         -4.1276564016        4.3676699487       -1.6045708305
 H         -2.7022444021        3.3766396168       -1.9438702533
 H         -5.4495465669        2.4235920300       -1.0370508114
 H         -4.6157594675        2.0861370217       -2.5667666508
 O         -3.0250580655        0.3974291068       -1.7690232808
 C         -2.2870669409       -0.7150642293       -1.3910563150
 O         -1.5536913681       -1.1527726937       -2.3010856713
 O         -3.5073949632       -1.0206531870        2.0024864941
 C         -1.6576230352       -2.4061038546        0.4032919130
 C         -0.2566261028       -1.9461071869        0.7266319435
 C          0.1095013038       -1.6748354711        2.0407187384
 C          1.3656608681       -1.1749538579        2.3346150843
 C          2.2773423919       -0.9237434295        1.3245099696
 C          1.9161041559       -1.1799802914        0.0086806605
 C          0.6661844350       -1.7050722189       -0.2815220177
 H          0.3873200929       -1.8763180065       -1.3102377306
 N          2.8265215303       -0.8859901373       -1.0294330764
 S          3.2598483244        0.7371236755       -1.1547844154
 O          2.2195700220        1.6044962404       -0.6486846707
 O          3.6463774061        0.9304334270       -2.5356478104
 C          4.7100294526        0.8597694713       -0.1279068373
 C          4.7354074058        1.7517154378        0.9261244224
 C          5.8769890701        1.8314853886        1.7087884991
 C          6.9666277471        1.0227431035        1.4243318613
 C          6.9258615844        0.1336416141        0.3603711643
 C          5.7883400854        0.0496122296       -0.4264529806
 H          5.7150181666       -0.6239973382       -1.2637761523
 H          7.7752500360       -0.4934433484        0.1425278837
 H          7.8529273095        1.0859583159        2.0356751725
 H          5.9101968272        2.5222182265        2.5359872656
 H          3.8610284762        2.3548254911        1.1121843334
 H          2.4994312785       -1.2093031075       -1.9301849101
 H          3.2533193018       -0.5222357470        1.5438466559
 H          1.6354800903       -0.9715752817        3.3597077122
 H         -0.6108315688       -1.8384443509        2.8293961983
 H         -2.1420093367       -2.6973173114        1.3447817316
 C         -1.6886001899       -3.5908628720       -0.5392930008
 C         -1.3161468634       -4.9440431792       -0.0140201005
 C         -2.7425312402       -4.6402124477       -0.3580471404
 H         -3.1713815305       -5.0948318924       -1.2384534778
 H         -3.4462534823       -4.5074793690        0.4506317447
 H         -0.7628122436       -5.6112860134       -0.6567469291
 H         -1.0518140348       -5.0175232389        1.0299406786
 H         -1.4067468839       -3.3480192758       -1.5554331164
