  62
        -98.94043415
 C         -0.1889648707       -2.1151482043        0.1689256126
 C          0.8819309609       -2.1182507012       -0.7547632139
 C          2.1525626534       -1.5216254317       -0.3035849775
 C          2.2415331788       -1.0593390770        0.9560101363
 C          3.3996074831       -0.3558620471        1.6131306983
 C          3.9733309252        0.8244789988        0.8114045378
 C          5.3896805973        0.5660201416        0.2973911217
 H          5.8741842716        1.5263682873        0.1078361146
 H          5.9584234754        0.0606415670        1.0806990855
 C          5.4650222019       -0.2502678680       -0.9914680907
 H          6.5181105260       -0.4722800605       -1.1807071178
 H          5.1065592001        0.3606648084       -1.8233439590
 C          4.6807116679       -1.5653031232       -0.9919441979
 H          4.7687082180       -2.0694901517       -0.0309375244
 H          5.1383281059       -2.2195237182       -1.7374691595
 C          3.2028850865       -1.4083325349       -1.3743150040
 H          3.0445415039       -0.4528270081       -1.8883773791
 H          2.9332416524       -2.1794462907       -2.1040068966
 H          3.3071587308        1.0652901941       -0.0188087185
 H          4.0002053770        1.6985958605        1.4641601809
 H          3.0188289199       -0.0046051778        2.5741724062
 H          4.1877829908       -1.0794732987        1.8285704426
 O          1.2148716180       -1.1740301331        1.8460761522
 C         -0.0378011210       -1.6336470562        1.4673580224
 O         -0.8984848097       -1.5620459294        2.3638196382
 O          0.7734705766       -2.5823994628       -1.9230649591
 C         -1.5703699866       -2.5187149783       -0.3168590813
 C         -2.4185644631       -1.2696300232       -0.3853766676
 C         -3.6586881273       -1.1392344055        0.2246438392
 C         -4.3548323118        0.0552172748        0.1432606070
 C         -3.8278425618        1.1408450532       -0.5314331242
 C         -2.5902735534        1.0184648797       -1.1547166465
 C         -1.9076139445       -0.1848224699       -1.0903585757
 H         -0.9511107106       -0.2710670192       -1.5858465779
 N         -2.0242807480        2.0982179914       -1.8604291946
 S         -0.4649632830        2.5918188337       -1.5052563502
 O         -0.3187401754        3.8527177893       -2.1994359209
 O          0.4819799799        1.5620508984       -1.8465421473
 C         -0.4747130479        2.8674758332        0.2539458280
 C         -0.2449187096        1.7905477046        1.0840867949
 C         -0.3296794300        1.9646785567        2.4554962566
 C         -0.6371202670        3.2148132141        2.9702216978
 C         -0.8587959031        4.2911632612        2.1233612650
 C         -0.7858803376        4.1182203407        0.7504896882
 H         -0.9492278672        4.9266881723        0.0562972511
 H         -1.0936812266        5.2617577355        2.5297423090
 H         -0.7033657050        3.3481702801        4.0384929849
 H         -0.1676792003        1.1144925648        3.1000322620
 H         -0.0052950201        0.8341266609        0.6478444297
 H         -2.6272408547        2.9072454847       -1.9178443446
 H         -4.3672899680        2.0744099034       -0.5819838079
 H         -5.3171183856        0.1446319427        0.6236850042
 H         -4.0776322758       -1.9695786060        0.7684226293
 H         -1.4217514628       -2.8825074407       -1.3444907924
 C         -2.1679100975       -3.6313442559        0.5144321481
 C         -3.2111691829       -4.5285947696       -0.0798033341
 C         -1.8300240538       -5.0508774336        0.1737913462
 H         -1.6817644696       -5.7527494527        0.9805792257
 H         -1.1811907927       -5.2180201939       -0.6738169342
 H         -4.0133058863       -4.8770630033        0.5528772322
 H         -3.5030826180       -4.3458426453       -1.1030141488
 H         -2.2468036606       -3.3761491901        1.5644167290
