  62
        -98.94443868
 C          1.9342366033        0.8431724927        0.0314571397
 C          2.4135564862       -0.4759557132        0.2162972331
 C          3.8286239785       -0.5889944250        0.5939080888
 C          4.5677547457        0.5217859160        0.7670157907
 C          6.0164082596        0.5682366346        1.1712816798
 C          6.9956711060        0.3949903897        0.0022129761
 C          7.0847863507       -1.0214225624       -0.5671906293
 H          7.9563639484       -1.0483526865       -1.2242524062
 H          7.2668446377       -1.7272407976        0.2438084141
 C          5.8507568266       -1.4614479334       -1.3672985921
 H          6.1700370805       -1.9332271950       -2.2994051392
 H          5.2601583650       -0.5836323487       -1.6396234615
 C          4.9471199093       -2.4587430794       -0.6419342734
 H          4.0880908362       -2.6726415657       -1.2832122849
 H          5.4877685969       -3.3942803819       -0.4815781290
 C          4.4162478022       -1.9629565657        0.7095905747
 H          3.6197787870       -2.6374319035        1.0339098793
 H          5.2118594071       -1.9768122304        1.4542687834
 H          7.9865117303        0.6815577406        0.3620561681
 H          6.7169615344        1.0902565162       -0.7929482985
 H          6.1832345980        1.5512707452        1.6168072403
 H          6.2110667240       -0.1934746821        1.9267227389
 O          4.0590563387        1.7727180994        0.6077634420
 C          2.7427725569        1.9639344409        0.2203605914
 O          2.4132353808        3.1604026073        0.0901322979
 H         -1.5706113733       -0.7412541587       -0.7913405329
 C         -1.4371662746       -0.4524873931        0.2370950271
 C         -0.4438139874        0.4414708049        0.6021501962
 C         -0.3033853185        0.7693834795        1.9490537759
 C         -1.1212923456        0.2001076046        2.9044449233
 C         -2.1070265090       -0.6996938266        2.5367174702
 C         -2.2614313707       -1.0283108544        1.1961676765
 N         -3.2426371096       -1.9511947624        0.7993882523
 S         -4.2137675150       -1.6443309491       -0.5250946962
 O         -5.3118200184       -2.5759184744       -0.3912668752
 O         -3.4502200949       -1.7298484019       -1.7428637110
 C         -4.7956891421        0.0213148836       -0.2668411853
 C         -5.8392825236        0.2176551586        0.6169071693
 C         -6.2606776110        1.5103511519        0.8810695807
 C         -5.6283263411        2.5807256794        0.2664225235
 C         -4.5830118792        2.3666648831       -0.6183940063
 C         -4.1592198772        1.0750894264       -0.8899764810
 H         -3.3535286729        0.8695349015       -1.5750461772
 H         -4.0937504703        3.2000406117       -1.0970778716
 H         -5.9531865671        3.5878403764        0.4753251719
 H         -7.0767406485        1.6801423087        1.5648083332
 H         -6.3106607604       -0.6421122927        1.0648317037
 H         -3.7857270164       -2.3329205792        1.5599020751
 H         -2.7416469794       -1.1536066134        3.2826325234
 H         -0.9932647830        0.4583905775        3.9448386664
 H          0.4694142768        1.4701533714        2.2353604570
 C          0.4951007408        1.0754610375       -0.3946227320
 H          0.3433328500        2.1643503977       -0.3650531299
 C          0.2924886132        0.5945516280       -1.8159689664
 C         -0.7168250957        1.2594061904       -2.7009775739
 C          0.7473021774        1.4626200167       -2.9489724374
 H          1.1979278301        0.9923735748       -3.8101758380
 H          1.1808417508        2.4196585967       -2.6965023323
 H         -1.2704435968        2.0892283060       -2.2876695125
 H         -1.2788909097        0.6483074000       -3.3920709681
 H          0.4394105484       -0.4744958250       -1.9226457380
 O          1.7027363738       -1.5050970996        0.0774610977
