  62
        -98.93603110
 C          1.8155803001        1.0435260702       -0.0472148813
 C          2.3727760226       -0.2147807511       -0.3671428714
 C          3.8245089175       -0.3676365801       -0.1436402156
 C          4.5305375758        0.6818403022        0.3142136641
 C          6.0050273484        0.7698453549        0.6176172221
 C          6.9585684259        0.1400252211       -0.4092936347
 C          7.6410795576       -1.1323867323        0.0955929446
 H          7.9060348324       -0.9914106877        1.1455242142
 H          8.5715703577       -1.2735459545       -0.4588095907
 C          6.8186475906       -2.4116107519       -0.0502239561
 H          7.3529862935       -3.2093778775        0.4711515910
 H          6.7683305900       -2.6906568059       -1.1050072379
 C          5.3916063965       -2.3386686593        0.4970243268
 H          5.3712823165       -1.7956844057        1.4411790083
 H          5.0632207925       -3.3583961351        0.7093252525
 C          4.3857269717       -1.7207628443       -0.4858443098
 H          3.5071365726       -2.3686699738       -0.5683347784
 H          4.8211184934       -1.6792205695       -1.4886382608
 H          7.7359165375        0.8719982381       -0.6344419484
 H          6.4250554907       -0.0588084553       -1.3374797340
 H          6.2113172754        1.8386730886        0.7085562422
 H          6.1825681969        0.3340279671        1.6039341111
 O          3.9470033005        1.8802670548        0.6057917326
 C          2.5911825329        2.0919965327        0.4441058297
 O          2.2023834258        3.2323618097        0.7678090418
 H         -1.7145428839       -0.3848845607       -1.0942782546
 C         -1.4742167409       -0.4874245972       -0.0499164369
 C         -0.4701804877        0.2730216927        0.5271030693
 C         -0.1887904248        0.0903785529        1.8794501465
 C         -0.8777694797       -0.8451600859        2.6250187654
 C         -1.8742530988       -1.6095609108        2.0426314172
 C         -2.1701035563       -1.4295825001        0.6977092436
 N         -3.1672471577       -2.2012621213        0.0795361610
 S         -4.2838616568       -1.4846172417       -0.9366194392
 O         -5.3506853375       -2.4553845549       -1.0425804459
 O         -3.6604705507       -1.0864248734       -2.1720018742
 C         -4.8492004414       -0.0562299560       -0.0313392841
 C         -5.7694397938       -0.2490287938        0.9809454395
 C         -6.1701748746        0.8384127213        1.7393608483
 C         -5.6391017444        2.0930240712        1.4799930953
 C         -4.7176548523        2.2698551469        0.4597147325
 C         -4.3159716706        1.1863283534       -0.3057505272
 H         -3.6058305345        1.2857161092       -1.1097608482
 H         -4.3075557444        3.2466650908        0.2579248662
 H         -5.9467242377        2.9391598333        2.0739534041
 H         -6.8910604211        0.7056463623        2.5299245481
 H         -6.1654803785       -1.2384083507        1.1432123942
 H         -3.6158705863       -2.8676148804        0.6909299453
 H         -2.4083353996       -2.3479133022        2.6211706803
 H         -0.6402630270       -0.9811344366        3.6693426081
 H          0.5918470567        0.6864322236        2.3329228444
 C          0.3307852778        1.2927191563       -0.2446390354
 H          0.1324060064        2.2844024800        0.1877729988
 C          0.0047485020        1.3336439164       -1.7227292156
 C         -1.1087616709        2.1997590213       -2.2267145196
 C          0.3160046475        2.5754627748       -2.5007530974
 H          0.6960240294        2.4722660550       -3.5060731822
 H          0.7397490527        3.4071389937       -1.9564551128
 H         -1.6468449691        2.7903980246       -1.5004451667
 H         -1.7147640541        1.8371702642       -3.0442096471
 H          0.1775941571        0.3841142048       -2.2168810304
 O          1.6937676575       -1.1756678827       -0.8161002514
