  62
        -98.94285653
 C         -1.5704871224       -1.4564473160        0.1180621937
 C         -2.7064862737       -0.9762658352        0.8160464335
 C         -3.3610671753        0.2082257232        0.2485309688
 C         -2.8472856556        0.7902989242       -0.8501708482
 C         -3.4037859017        1.9987106964       -1.5540593800
 C         -2.9845488575        3.3380856608       -0.9322133840
 C         -3.6511076765        3.6764254977        0.4016546069
 H         -3.4420505834        4.7281202442        0.6076506446
 H         -4.7323160144        3.5730716326        0.3056349629
 C         -3.1542077524        2.8344594962        1.5853166729
 H         -2.2097286905        2.3534911357        1.3189046050
 H         -2.9508608732        3.4867465446        2.4378409364
 C         -4.1376350178        1.7635056793        2.0570908146
 H         -3.6707088999        1.2010774947        2.8699454555
 H         -5.0369471332        2.2405845485        2.4529637385
 C         -4.5522574580        0.7658992337        0.9679118625
 H         -5.2338407270        1.2413020183        0.2626549422
 H         -5.0709841917       -0.0674931077        1.4484970014
 H         -1.9002201321        3.3418483399       -0.8002988782
 H         -3.2366513413        4.1232439229       -1.6486844483
 H         -3.0283857244        1.9611109289       -2.5788153719
 H         -4.4921830849        1.9367001286       -1.5819167594
 O         -1.7387762763        0.3172028646       -1.4758968114
 C         -1.0651409187       -0.8068767526       -1.0110310280
 O         -0.0616320311       -1.1037994571       -1.6806814950
 O         -3.1496456884       -1.5092927859        1.8688995047
 C         -0.8404914883       -2.6574516279        0.6934858532
 C          0.6418173664       -2.3785792994        0.7216193122
 C          1.6001982489       -3.2052826765        0.1524847006
 C          2.9391234762       -2.8534108052        0.1852683154
 C          3.3506942365       -1.6734717837        0.7756774639
 C          2.3988071749       -0.8383871211        1.3470153277
 C          1.0630802934       -1.2022398938        1.3310782772
 H          0.3242196940       -0.5466206332        1.7770226980
 N          2.8000762063        0.3826325877        1.9285571816
 S          3.6352367679        1.4455309552        0.9361465834
 O          4.9800211686        0.9589065392        0.7574242493
 O          3.5074095983        2.7355840595        1.5777280823
 C          2.7694726525        1.4394090560       -0.6211816052
 C          3.2134256969        0.6294437212       -1.6458207184
 C          2.5015572457        0.6028913972       -2.8333382363
 C          1.3664156370        1.3833138905       -2.9759097333
 C          0.9364196860        2.1957783555       -1.9392771455
 C          1.6376279353        2.2199202465       -0.7457797593
 H          1.3352307776        2.8400535378        0.0842531312
 H          0.0497549320        2.7985648786       -2.0573075077
 H          0.8066725318        1.3531749057       -3.8971434287
 H          2.8270425294       -0.0344752790       -3.6392621498
 H          4.1038107955        0.0407453502       -1.4986244796
 H          2.0407698868        0.8732430159        2.3795323190
 H          4.3867063779       -1.3757151359        0.7923814475
 H          3.6723815409       -3.5044976439       -0.2659043696
 H          1.2996752425       -4.1144282334       -0.3412072642
 H         -1.1946619965       -2.7191908445        1.7368027111
 C         -1.1971529209       -3.9836825672        0.0394372569
 C         -2.5105489027       -4.1736606964       -0.6571221995
 C         -1.2393473889       -4.1521034210       -1.4488272746
 H         -0.8841851923       -5.0814067641       -1.8696990941
 H         -1.0217955523       -3.2860277468       -2.0534373880
 H         -3.0254118813       -5.1143822741       -0.5308504630
 H         -3.1710201325       -3.3213872968       -0.7247391243
 H         -0.8370611813       -4.8302115090        0.6161478932
