  62
        -98.94438112
 C          2.3590007220        1.1316186928        0.2419191181
 C          2.3758442913       -0.1474559301       -0.3655753912
 C          3.3766086621       -1.0873630231        0.1573752983
 C          4.1756281314       -0.7224541785        1.1759541940
 C          5.2261322786       -1.5775056279        1.8310258062
 C          6.5740838799       -1.5827331645        1.0968906303
 C          6.5970829583       -2.3652857033       -0.2167004447
 H          7.6438314766       -2.4690259945       -0.5091962846
 H          6.2054108584       -3.3687862284       -0.0474180302
 C          5.8282387886       -1.6978173228       -1.3654817363
 H          5.6565024468       -0.6458779078       -1.1263228808
 H          6.4345018332       -1.7249765621       -2.2736727448
 C          4.4877777604       -2.3540026315       -1.6970896217
 H          4.6565027781       -3.3685857827       -2.0649739918
 H          4.0135113284       -1.7805054852       -2.4976264948
 C          3.5082205094       -2.4192891705       -0.5178167673
 H          2.5228586428       -2.6962377970       -0.9018102644
 H          3.8285220201       -3.1781555871        0.1959029567
 H          7.3099605835       -2.0260995241        1.7715712398
 H          6.8740789437       -0.5490455058        0.9105322496
 H          4.8584358704       -2.5994542979        1.9280527301
 H          5.3803506717       -1.1670383453        2.8312479248
 O          4.1013264425        0.5035138742        1.7584954427
 C          3.2066248158        1.4567033602        1.3040630626
 O          3.2586224987        2.5407417371        1.9185688816
 O          1.6076500099       -0.4983790977       -1.3000593170
 C          1.3785571188        2.2066783167       -0.2020169809
 C         -0.0085266835        1.7655857405        0.1969218268
 C         -0.4249593755        1.9516221690        1.5124877455
 C         -1.6620237060        1.4998051911        1.9307539960
 C         -2.5061884635        0.8445616079        1.0502505747
 C         -2.0920773954        0.6381675236       -0.2579700014
 C         -0.8574655720        1.1133902750       -0.6824096459
 H         -0.5438857289        0.9348810781       -1.6984736784
 N         -2.9352574755       -0.0331573284       -1.1591098266
 S         -3.7015533445       -1.4363576656       -0.6509329793
 O         -2.9409229666       -2.1347539106        0.3594728207
 O         -3.9865054153       -2.1708476151       -1.8645902126
 C         -5.2362118401       -0.8468618484        0.0365591202
 C         -5.6321081985       -1.2610675806        1.2931794656
 C         -6.8353414742       -0.7989333018        1.8037141861
 C         -7.6180392833        0.0637662261        1.0520012236
 C         -7.2078606963        0.4679911706       -0.2097849912
 C         -6.0069379449        0.0086763046       -0.7262777344
 H         -5.6538936428        0.2974071801       -1.7020317819
 H         -7.8189086602        1.1393731876       -0.7912984408
 H         -8.5528420790        0.4233157379        1.4521716852
 H         -7.1555112910       -1.1127259915        2.7843064980
 H         -4.9876360149       -1.9273101622        1.8446313685
 H         -2.5221485320       -0.1640406579       -2.0715592462
 H         -3.4667087910        0.4780410650        1.3734942954
 H         -1.9730871017        1.6548134131        2.9527523511
 H          0.2441529351        2.4432159040        2.2053756303
 H          1.6308110137        3.1020795252        0.3812818915
 C          1.5236986782        2.5285703490       -1.6745511531
 C          0.9054622267        3.7819190069       -2.2148042325
 C          2.3948259301        3.6742549783       -2.0895613528
 H          2.9833476410        3.5733055070       -2.9892442463
 H          2.8854534211        4.2371599116       -1.3088809266
 H          0.4697243331        3.7590915081       -3.2019491548
 H          0.3832200053        4.4186201615       -1.5169317473
 H          1.5309112290        1.6509209781       -2.3087698275
