  62
        -98.94341824
 C          1.3068743844        1.3430443011        0.6126343818
 C          2.1979855387        1.2106019259       -0.4799738402
 C          3.2692189838        0.2129467703       -0.3133452945
 C          3.3020271761       -0.5473721171        0.7958526879
 C          4.3753569058       -1.5468555839        1.1211208731
 C          4.0615258706       -2.9576739976        0.6061326938
 C          3.6018238935       -2.9970696968       -0.8499367153
 H          3.4241525511       -4.0428820338       -1.1092562915
 H          2.6466606694       -2.4772578527       -0.9356715175
 C          4.5944744754       -2.3836303599       -1.8460902710
 H          4.6749208862       -3.0441826908       -2.7119851724
 H          5.5852150300       -2.3209311350       -1.3943731613
 C          4.1903886509       -1.0053356944       -2.3730404845
 H          3.1587575516       -1.0365423670       -2.7325435482
 H          4.8257717569       -0.7723046892       -3.2317181978
 C          4.3258881266        0.1571265066       -1.3815142904
 H          5.3218025645        0.1385833126       -0.9326442991
 H          4.2242292180        1.0876380673       -1.9477750073
 H          4.9572311058       -3.5706986234        0.7226224380
 H          3.2773888958       -3.3931061491        1.2295912911
 H          5.3132789629       -1.1994973048        0.6902842717
 H          4.4814445141       -1.5837190718        2.2069767959
 O          2.3480470286       -0.4817161178        1.7603584380
 C          1.3442644473        0.4683003760        1.7023637300
 O          0.5566807560        0.4432240131        2.6690318307
 O          2.1422640214        1.9026588784       -1.5289925196
 C          0.2598284773        2.4457232300        0.6819312938
 C         -0.9346575091        2.0953058509       -0.1700506675
 C         -1.0049384559        2.3910952081       -1.5261126875
 C         -2.1179097712        2.0293425084       -2.2656979718
 C         -3.1782332738        1.3651599082       -1.6737428876
 C         -3.1074105769        1.0494142085       -0.3237872259
 C         -1.9944678428        1.4165964157        0.4182108927
 H         -1.9341151929        1.1556793616        1.4671487345
 N         -4.1660579353        0.3196661181        0.2701311498
 S         -4.2207297276       -1.2916008168       -0.1925136015
 O         -4.4986632655       -1.3562471492       -1.6035904906
 O         -5.1789984467       -1.9259909316        0.6823143769
 C         -2.5750669251       -1.8865378894        0.1469143106
 C         -1.5685178738       -1.5920724778       -0.7510381391
 C         -0.2657918197       -1.9318041679       -0.4277415371
 C          0.0062345209       -2.5655705113        0.7739638743
 C         -1.0162219847       -2.8606255747        1.6615640950
 C         -2.3192573429       -2.5069640450        1.3530056638
 H         -3.1420969607       -2.7061402185        2.0210251637
 H         -0.7962644441       -3.3483835336        2.5975182090
 H          1.0229426735       -2.8210750969        1.0264045183
 H          0.5316458087       -1.6822120931       -1.1110809124
 H         -1.8124576730       -1.1058928078       -1.6815447016
 H         -4.1480267370        0.3601824927        1.2805682538
 H         -4.0438348549        1.0610432646       -2.2393651593
 H         -2.1603486624        2.2674275832       -3.3177638157
 H         -0.1728620596        2.8825328314       -2.0035922205
 H         -0.0780056770        2.4581957606        1.7271104153
 C          0.8375175583        3.8076001296        0.3525249532
 C          0.0717184294        5.0338165330        0.7447493658
 C          1.3371094384        4.6778484569        1.4644895822
 H          2.2168413254        5.2795796501        1.2919189240
 H          1.2613510026        4.2973444562        2.4729848584
 H          0.0799576282        5.8824138729        0.0782138467
 H         -0.8640734315        4.8931203262        1.2646965275
 H          1.3895883273        3.8336690399       -0.5771822126
