  62
        -98.93912055
 C         -1.0957173901       -1.5968583601       -0.2886061204
 C         -2.2453480303       -1.4528068399        0.5284370893
 C         -3.2853064200       -0.5054964398        0.0836460689
 C         -3.0933766997        0.1667844001       -1.0660903211
 C         -3.9965442294        1.1796965101       -1.7208594615
 C         -3.9866414294        2.5527901302       -1.0279007116
 C         -4.0018284998        2.5070516004        0.4978799784
 H         -3.1591660199        1.9104425603        0.8517290287
 H         -3.8569437497        3.5275169604        0.8615633283
 C         -5.2920410100        1.9715132706        1.1131114181
 H         -6.1292608298        2.5951294406        0.7916481779
 H         -5.2020333103        2.0698246307        2.1978422481
 C         -5.6225780101        0.5124010206        0.7946694082
 H         -6.0117996798        0.4093200505       -0.2146549219
 H         -6.4266092303        0.2055596107        1.4699649580
 C         -4.4700582403       -0.4617691895        1.0182224686
 H         -4.0591330005       -0.3083127595        2.0224651987
 H         -4.8722179604       -1.4820141995        1.0263557586
 H         -3.0848606692        3.0851673701       -1.3407101414
 H         -4.8467602592        3.1221953403       -1.3842038519
 H         -3.6333184591        1.3041336600       -2.7437020514
 H         -5.0070498894        0.7843969603       -1.7784191017
 O         -1.9657049495        0.0067526499       -1.8155351308
 C         -0.9491773897       -0.8668561802       -1.4659878505
 O         -0.0064805495       -0.8835061504       -2.2820557502
 O         -2.4090511806       -2.1026633597        1.5955160593
 C         -0.0463702103       -2.5923181802        0.1772838599
 C          1.0578229296       -1.8947800002        0.9381765001
 C          1.0770318192       -1.9687462501        2.3275618702
 C          2.0848007191       -1.3639633901        3.0551026604
 C          3.0910040194       -0.6709120903        2.4083923505
 C          3.0770753897       -0.5790935305        1.0208327005
 C          2.0617684098       -1.1848665304        0.2914987003
 H          2.0607696601       -1.0955701405       -0.7836591697
 N          4.1032316200        0.1147340993        0.3562299507
 S          3.7160621004        1.2188114593       -0.8408667695
 O          3.3999408406        0.5383277392       -2.0680940595
 O          4.8612367205        2.1048520991       -0.8857812593
 C          2.3041916604        2.0878619295       -0.1883713099
 C          1.0445093104        1.8226466396       -0.6809636202
 C         -0.0447744596        2.4518680698       -0.0989076806
 C          0.1421713702        3.3295056799        0.9566378794
 C          1.4178253601        3.5932189898        1.4332439497
 C          2.5102646802        2.9643961796        0.8598692100
 H          3.5178238801        3.1494552395        1.1955812503
 H          1.5606001400        4.2812715898        2.2507887097
 H         -0.7122170098        3.8100106200        1.4069310691
 H         -1.0340056096        2.2416107199       -0.4729444508
 H          0.9317909206        1.1303027296       -1.5004447202
 H          4.7995831099        0.5035604493        0.9764985309
 H          3.8867666893       -0.2051139404        2.9694618107
 H          2.0883299988       -1.4339730300        4.1319859604
 H          0.2844062890       -2.5011163799        2.8327266500
 H         -0.5740331606       -3.2372863500        0.8939515399
 C          0.5007631599       -3.4690802503       -0.9300389498
 C          1.1505107696       -4.7687522004       -0.5637338796
 C         -0.1855475702       -4.7635765803       -1.2425742199
 H         -0.2445016700       -5.0785366604       -2.2736705699
 H         -1.0557136804       -5.0232153301       -0.6570988701
 H          2.0135310197       -5.0887242605       -1.1271909693
 H          1.1855241793       -5.0323901603        0.4826294205
 H          0.9153328601       -2.9172335905       -1.7633774398
