  62
        -98.93731855
 C         -1.7605902833       -1.5105537500        0.3534278345
 C         -1.8041756601       -0.2730108059        1.0434655701
 C         -2.8792986902        0.6678762088        0.6798150982
 C         -3.7534515120        0.3054927102       -0.2770845556
 C         -4.9095301619        1.1022476183       -0.8186954495
 C         -4.4626708128        2.1911092463       -1.8112894747
 C         -3.1767827942        2.9202654301       -1.4281323123
 H         -2.3895716746        2.1813659975       -1.2660144943
 H         -2.8756033600        3.5365013507       -2.2796838575
 C         -3.2818369516        3.8312824432       -0.2074803455
 H         -4.0032288313        4.6241964763       -0.4190390617
 H         -2.3060586945        4.3024075210       -0.0661030032
 C         -3.6898575985        3.1550028214        1.1016959520
 H         -4.7470106783        2.9034410898        1.0866839012
 H         -3.5583706099        3.8897949362        1.9016803932
 C         -2.8592200517        1.9364749912        1.4969278424
 H         -1.8040643505        2.2225001729        1.5616667110
 H         -3.1433980641        1.6438939067        2.5153575587
 H         -4.2941713173        1.7131977136       -2.7793217439
 H         -5.2739325488        2.9111986378       -1.9281926456
 H         -5.5605185671        0.3995293375       -1.3430959200
 H         -5.4773829136        1.5292545545        0.0029016484
 O         -3.6523177156       -0.8779520552       -0.9417261528
 C         -2.6576979266       -1.8027602004       -0.6733997173
 O         -2.7009757044       -2.8074043981       -1.4098402209
 O         -0.9732288789        0.0353724704        1.9398499558
 C         -0.6509848229       -2.4665929410        0.7583538313
 C          0.5620672135       -2.2147913522       -0.1034450727
 C          0.5538583143       -2.4918254862       -1.4664086761
 C          1.6623420652       -2.2097977079       -2.2444460743
 C          2.7978564038       -1.6499304520       -1.6835629603
 C          2.8115486118       -1.3627884271       -0.3253760199
 C          1.6985995787       -1.6480623002        0.4548307533
 H          1.7069116369       -1.4059738980        1.5089317137
 N          3.9639198635       -0.7873842878        0.2523610362
 S          4.3897072012        0.7526564535       -0.2471638969
 O          4.6106939396        0.7371712436       -1.6700199272
 O          5.5158975382        1.1281928890        0.5758418063
 C          2.9867041376        1.7822546350        0.1452590645
 C          1.8829859469        1.7573303730       -0.6838163283
 C          0.7831442607        2.5322264645       -0.3534937967
 C          0.8050561825        3.3117277674        0.7921449159
 C          1.9178321026        3.3199090373        1.6182085837
 C          3.0193719819        2.5447068576        1.2956813205
 H          3.9083403110        2.5249262078        1.9056235043
 H          1.9277534968        3.9247285926        2.5107141679
 H         -0.0515881206        3.9176781211        1.0433660439
 H         -0.0877042585        2.5223741887       -0.9898498432
 H          1.9002542178        1.1437340050       -1.5704451649
 H          3.9516139947       -0.8092401975        1.2629342060
 H          3.6621172518       -1.4106601717       -2.2814290425
 H          1.6435324583       -2.4283663984       -3.3016419658
 H         -0.3361415585       -2.9104842933       -1.9114967268
 H         -0.3898353924       -2.1841605105        1.7873141399
 C         -1.0490991482       -3.9274796651        0.7522882673
 C         -0.2424507943       -4.8976275100        1.5606138629
 C         -1.6302410282       -4.5328191892        1.9931604086
 H         -2.4157550516       -5.2658078554        1.8877066219
 H         -1.7438788035       -3.8941473803        2.8571289498
 H         -0.0709719822       -5.8842339300        1.1587011738
 H          0.5856565920       -4.5066355027        2.1324917226
 H         -1.4447866740       -4.2684349350       -0.1945818521
