  62
        -98.93746340
 C          2.3097005694        1.3364514000       -0.1334131096
 C          3.2280821794        0.8327238503        0.8254949505
 C          4.1333047794       -0.2312879598        0.3756899508
 C          4.0653348493       -0.6641081303       -0.8956093690
 C          4.9444257392       -1.6995002205       -1.5454582887
 C          4.8222927893       -3.1351712203       -0.9994496982
 C          5.8413890493       -3.4851636500        0.0920176118
 H          6.1923084793       -4.5061865600       -0.0709902279
 H          6.7096733993       -2.8341983700       -0.0169074185
 C          5.3272816994       -3.4151995895        1.5330226518
 H          4.7252498094       -4.3029614594        1.7400758422
 H          6.1932235795       -3.4426456793        2.1979277918
 C          4.4747190095       -2.1945864993        1.8811142115
 H          3.4732382794       -2.3131470495        1.4593514116
 H          4.3489806496       -2.1649490590        2.9652514515
 C          5.0465812195       -0.8488798595        1.3941257110
 H          6.0462672994       -0.9810947797        0.9832072709
 H          5.1051904695       -0.1460335792        2.2274262207
 H          3.8060628093       -3.3032815702       -0.6426777581
 H          4.9826829292       -3.8082237306       -1.8433405680
 H          5.9839605292       -1.3717962805       -1.4726756789
 H          4.6661282492       -1.6952623908       -2.6013721987
 O          3.1743333092       -0.1539790206       -1.7868580891
 C          2.2677627993        0.8347687896       -1.4338423794
 O          1.5112240592        1.1629795493       -2.3712490994
 O          3.2970253795        1.2675005107        2.0056782904
 C          1.3684297994        2.4340642702        0.3375891401
 C          0.0068104294        1.8643963603        0.6574420704
 C         -0.4421687105        1.7897948607        1.9709870205
 C         -1.6781710005        1.2400663008        2.2631661708
 C         -2.4889797605        0.7516276605        1.2542983310
 C         -2.0433481506        0.8094001001       -0.0596591191
 C         -0.8094846307        1.3720191000       -0.3511214493
 H         -0.4616073307        1.3966310896       -1.3731554594
 N         -2.8538952407        0.3031405897       -1.0933766988
 S         -3.4113096707       -1.2734085102       -0.9272482483
 O         -2.5230651207       -2.0678857099       -0.1090347181
 O         -3.6392641608       -1.7451257107       -2.2758468481
 C         -4.9835327707       -1.0762127399       -0.1134297982
 C         -5.2385519906       -1.7397666495        1.0706424520
 C         -6.4732085805       -1.5737446993        1.6791859121
 C         -7.4256390306       -0.7526108495        1.0954076919
 C         -7.1547845006       -0.0955010999       -0.0957364684
 C         -5.9231187407       -0.2577055901       -0.7094542084
 H         -5.6728381108        0.2315224596       -1.6359791786
 H         -7.8979572007        0.5420453400       -0.5468484285
 H         -8.3848901605       -0.6241509493        1.5714202619
 H         -6.6856484505       -2.0842508590        2.6047858522
 H         -4.4651189106       -2.3634444294        1.4900890422
 H         -2.4473677508        0.4331982394       -2.0095386389
 H         -3.4502728105        0.3170356806        1.4749072812
 H         -2.0135427404        1.1895677012        3.2877954708
 H          0.1948473396        2.1498509610        2.7657688403
 H          1.8062413395        2.7976061605        1.2768802900
 C          1.2723883993        3.5986050898       -0.6278272302
 C          0.8017099694        4.9262493000       -0.1172079206
 C          2.2382254994        4.7364704799       -0.4995313307
 H          2.6016386493        5.2061676796       -1.4011935809
 H          2.9739112194        4.6803725601        0.2895233993
 H          0.1749394294        5.5298729198       -0.7552639508
 H          0.5632712595        5.0006315304        0.9328761693
 H          0.9795538293        3.3094767295       -1.6285982601
