  62
        -98.94358466
 C          2.5592609599        0.0057203770       -0.1513230444
 C          2.4192321472        1.1405161065       -0.9889571157
 C          1.9476289807        2.3703728749       -0.3453716386
 C          1.6758013481        2.3689891769        0.9718133681
 C          1.1817322766        3.5392096140        1.7778697960
 C         -0.3407223529        3.7207912267        1.7107301535
 C         -0.8630633060        4.2979646749        0.3944701217
 H         -1.8974337958        4.6028957755        0.5648421105
 H         -0.2951318537        5.1930875317        0.1371739457
 C         -0.8317232618        3.3095781119       -0.7794715346
 H         -1.7780610719        3.3563025253       -1.3247047875
 H         -0.7486471605        2.2881411541       -0.3987458702
 C          0.2818502299        3.5554059463       -1.7983225419
 H          0.1091196365        4.5070690282       -2.3071957059
 H          0.2312505239        2.7579933302       -2.5448685722
 C          1.6990630453        3.5691175802       -1.2105005183
 H          2.4117731407        3.5351512851       -2.0386093684
 H          1.8619652768        4.4863446183       -0.6444433270
 H         -0.6283304755        4.3938514668        2.5219516007
 H         -0.8124455244        2.7511655626        1.8902476903
 H          1.6774496228        4.4528042798        1.4482011018
 H          1.4618976453        3.3427637750        2.8150111180
 O          1.8387374489        1.2672959868        1.7475417365
 C          2.2164397524        0.0488486483        1.2021211094
 O          2.2284951302       -0.8845879908        2.0269526716
 O          2.6716774811        1.1228252553       -2.2251587721
 C          2.8921292724       -1.3229261233       -0.8122810612
 C          1.8254907102       -2.3131877391       -0.4158382657
 C          2.0667843043       -3.5390293909        0.1871231019
 C          1.0073640814       -4.3323419228        0.5956120565
 C         -0.3003023383       -3.9138450854        0.4355361706
 C         -0.5509682952       -2.6926715286       -0.1822808343
 C          0.5083596774       -1.9254122649       -0.6303601078
 H          0.3072069114       -0.9773694225       -1.1094649859
 N         -1.8644078686       -2.2236184806       -0.3700129027
 S         -2.1029754761       -0.5496274964       -0.3519167484
 O         -1.8054714807       -0.0363530112       -1.6661168505
 O         -1.4016600359        0.0573293363        0.7567133490
 C         -3.8641709126       -0.4839497309       -0.0813999662
 C         -4.3531434096       -0.1856990047        1.1758451681
 C         -5.7250665774       -0.1672796770        1.3748023044
 C         -6.5792367966       -0.4493450066        0.3195341724
 C         -6.0734684605       -0.7461632905       -0.9376688801
 C         -4.7033441475       -0.7639684157       -1.1436505200
 H         -4.2631524122       -0.9781898014       -2.1034440515
 H         -6.7406063180       -0.9621114815       -1.7564186829
 H         -7.6460237527       -0.4350415523        0.4773680654
 H         -6.1203276409        0.0667821093        2.3500979430
 H         -3.6497982490        0.0319299131        1.9638926026
 H         -2.5376355110       -2.7029405286        0.2123709565
 H         -1.1207573892       -4.5186032055        0.7909382002
 H          1.2055098825       -5.2800969377        1.0731215147
 H          3.0798765499       -3.8580741150        0.3694741858
 H          2.7824283529       -1.1200285107       -1.8918806824
 C          4.3130036536       -1.8219356580       -0.6109856605
 C          5.4298921579       -0.8635032541       -0.3268262922
 C          4.9875866022       -1.8319899357        0.7266477179
 H          5.6388949922       -2.6612629300        0.9616541595
 H          4.4282410937       -1.4601749436        1.5699089729
 H          6.3812233433       -1.0239790104       -0.8115413543
 H          5.1705982476        0.1782320223       -0.2029704530
 H          4.5480200457       -2.6456026019       -1.2786119869
