  62
        -98.94092922
 C          2.2821732194       -0.5341688146       -0.1492160420
 C          3.5576686340       -1.0594017418       -0.4667830886
 C          4.6417396384       -0.0776503920       -0.6005640446
 C          4.3661143514        1.2302466679       -0.4445622209
 C          5.3826336049        2.3327555377       -0.5061422182
 C          5.9602918997        2.6345853157        0.8837260776
 C          6.4274922263        1.3916747903        1.6412713686
 H          6.8438597016        1.7286445072        2.5930637821
 H          5.5601347061        0.7691115901        1.8729197941
 C          7.4717993417        0.5490089843        0.8957148192
 H          8.2638113213        0.2743361683        1.5954940489
 H          7.9303221026        1.1429559224        0.1043648297
 C          6.9300677683       -0.7530586507        0.3029376525
 H          7.7811054837       -1.3673142505       -0.0027788266
 H          6.3861302324       -1.3070475566        1.0721383481
 C          6.0146842472       -0.6002723872       -0.9184073379
 H          6.5019953500        0.0265600777       -1.6677928841
 H          5.8636654330       -1.5953203749       -1.3469510942
 H          5.1886947829        3.1285775746        1.4789122158
 H          6.7953822665        3.3276938910        0.7671290229
 H          6.1805690447        2.0461897635       -1.1883720686
 H          4.8930047634        3.2297282126       -0.8890208574
 O          3.1224073977        1.6992957060       -0.1648372054
 C          2.0514541566        0.8329074190        0.0008096058
 O          0.9724987413        1.3964787841        0.2689890261
 H         -1.5584499185       -0.9857468689        0.5298661776
 C         -1.2951923262       -0.9086132518       -0.5106382067
 C          0.0069239030       -1.1324733279       -0.9280435555
 C          0.3025792879       -1.0252563054       -2.2851430569
 C         -0.6764413277       -0.6800052819       -3.1952243089
 C         -1.9693295761       -0.4282621440       -2.7702237979
 C         -2.2790336455       -0.5452568688       -1.4209548750
 N         -3.6019362114       -0.3430932549       -0.9794054109
 S         -3.9051974033        0.5603950081        0.4153731283
 O         -3.4426571891        1.9208628475        0.2467010822
 O         -3.4143906675       -0.1534416802        1.5655391833
 C         -5.6889820589        0.5187281894        0.4085023051
 C         -6.3165189349       -0.6586561904        0.7693368848
 C         -7.7008081432       -0.7138587001        0.7479828774
 C         -8.4311492591        0.4029955218        0.3690265265
 C         -7.7877155606        1.5781192624        0.0119378981
 C         -6.4028154351        1.6391802229        0.0294033404
 H         -5.8592878226        2.5325060685       -0.2336933036
 H         -8.3577237157        2.4457548857       -0.2790378585
 H         -9.5086587917        0.3577319693        0.3544397661
 H         -8.2048437192       -1.6250174593        1.0272297724
 H         -5.7080695616       -1.4973257104        1.0645239689
 H         -4.1917672380        0.0063118997       -1.7245860642
 H         -2.7324920620       -0.1446584120       -3.4795124582
 H         -0.4312429968       -0.5955185907       -4.2434261549
 H          1.3171027739       -1.2078761383       -2.6134855657
 C          1.1178513487       -1.4920578965        0.0265215613
 H          1.5080563268       -2.4817285243       -0.2551039436
 C          0.6847115470       -1.5360476776        1.4763378430
 C          0.0264350287       -2.7639832967        2.0280439270
 C          1.4270594124       -2.4182343278        2.4330352141
 H          1.6023994802       -2.0581712422        3.4357763333
 H          2.2367486181       -3.0107790346        2.0325539402
 H         -0.7665015340       -2.6385542657        2.7499612874
 H         -0.1155853919       -3.5968148396        1.3560686428
 H          0.3502870674       -0.5706325671        1.8426337655
 O          3.7765165606       -2.2889891274       -0.6363008230
