  62
        -98.92682217
 C          2.0929093843        1.2992193736        0.0073497826
 C          2.4583649734        0.1290521276       -0.7002712163
 C          3.8832900974       -0.2492205759       -0.6313290156
 C          4.7465649644        0.5234234971        0.0482008124
 C          6.2356941688        0.3475956338        0.2100316913
 C          6.7508447864       -1.0669458898        0.5128453517
 C          5.7979824159       -1.9448439322        1.3373178008
 H          6.3487758097       -2.3733324559        2.1767490779
 H          4.9922247565       -1.3371336640        1.7524998796
 C          5.2012405126       -3.1004759461        0.5300470784
 H          5.9905071436       -3.5441904433       -0.0808172899
 H          4.8532594069       -3.8701278946        1.2232082696
 C          4.0202705820       -2.7347754258       -0.3687396816
 H          3.1419365312       -2.5106621111        0.2431609130
 H          3.7726659538       -3.6112809111       -0.9724905252
 C          4.2489973175       -1.5389377857       -1.3075779774
 H          5.2686915743       -1.5222081653       -1.6846682631
 H          3.5649573090       -1.6410106023       -2.1544530487
 H          6.9828565902       -1.5775557508       -0.4208010825
 H          7.6939615570       -0.9507226043        1.0494267252
 H          6.7232113293        0.7195185602       -0.6957218403
 H          6.5136017334        1.0207202827        1.0244649853
 O          4.3525051184        1.6583038557        0.6934553230
 C          3.0307893500        2.0627082023        0.7026007090
 O          2.8158263233        3.1032027236        1.3579160754
 H         -1.1867035016        0.1664491317       -1.4347995681
 C         -1.0927291751       -0.0616687722       -0.3899201758
 C         -0.2426953966        0.6460440773        0.4438677645
 C         -0.1507911975        0.2403186805        1.7775551431
 C         -0.8759722872       -0.8303736292        2.2590411287
 C         -1.7453363356       -1.5128131472        1.4253748414
 C         -1.8495435289       -1.1195038448        0.0995089760
 N         -2.7462808464       -1.7646597353       -0.7811563498
 S         -4.0278548620       -0.8348483878       -1.3249850211
 O         -4.9160790280       -1.7543917761       -1.9994893960
 O         -3.5332782493        0.2725740008       -2.0988098819
 C         -4.7935612795       -0.2379159009        0.1727977757
 C         -4.2715788049        0.8816588815        0.7902210064
 C         -4.8143161722        1.2941337025        1.9969096754
 C         -5.8623499553        0.5843018314        2.5627556741
 C         -6.3766965577       -0.5370169931        1.9295366653
 C         -5.8344615495       -0.9577728830        0.7258807192
 H         -6.2044509417       -1.8213512459        0.1969604930
 H         -7.1935991002       -1.0851322975        2.3706893029
 H         -6.2805721547        0.9090131780        3.5024016841
 H         -4.4129987572        2.1651521846        2.4896364033
 H         -3.4577776085        1.4111804001        0.3213060899
 H         -3.0994884118       -2.6424531596       -0.4258801240
 H         -2.3261284061       -2.3449915713        1.7941548211
 H         -0.7739834856       -1.1291971809        3.2911892407
 H          0.5221586650        0.7764165831        2.4337618914
 C          0.6500423125        1.7941142153        0.0470002785
 H          0.6254161796        2.5075727167        0.8868710955
 C          0.3751133362        2.6346380174       -1.1923810251
 C          0.2137067628        2.1102257155       -2.5857402430
 C         -0.9361525116        2.7900163696       -1.9021427582
 H         -1.2049511232        3.7812438460       -2.2381855554
 H         -1.7844192849        2.1930062115       -1.6083090002
 H          0.1886464980        1.0416596652       -2.7282431182
 H          0.7216632508        2.6340094307       -3.3835807473
 H          0.9667722152        3.5459717161       -1.1212094915
 O          1.6543947991       -0.5742487692       -1.3616470771
