  62
        -98.94456070
 C          1.4005192701        0.9898772484       -0.0276145380
 C          2.6799365534        1.3302094212        0.4745443811
 C          3.5862498658        0.2049596455        0.7294046050
 C          3.1611345436       -1.0546483111        0.5213180597
 C          3.9565016334       -2.3083930319        0.7659581233
 C          4.8865249571       -2.6932325106       -0.3927694620
 C          6.1228841015       -1.8082218212       -0.5555748381
 H          6.6457942946       -1.7366460891        0.3986478459
 H          6.7905204356       -2.3153437923       -1.2550811546
 C          5.8274665191       -0.3996391575       -1.0896357999
 H          6.5390362265       -0.1533795493       -1.8810598163
 H          4.8316593557       -0.3810487563       -1.5384937520
 C          5.9167162949        0.7084162242       -0.0401882855
 H          5.6544502258        1.6552817206       -0.5191974172
 H          6.9440817422        0.7884212786        0.3221950803
 C          4.9871460562        0.5130985847        1.1647931052
 H          5.3690830530       -0.2779791208        1.8097311864
 H          4.9612035271        1.4463758779        1.7326437610
 H          4.3100054753       -2.6872095899       -1.3205934705
 H          5.2214049879       -3.7179013882       -0.2158411427
 H          3.2316550276       -3.1126535598        0.9069533966
 H          4.5396031258       -2.2006813575        1.6809132202
 O          1.9122295898       -1.3417362251        0.0686463713
 C          1.0078820410       -0.3327685867       -0.2364937289
 O         -0.0829429640       -0.7418623222       -0.6716881281
 O          3.0445780594        2.5146436572        0.7036676118
 C          0.4099441130        2.1048268272       -0.3177228003
 C         -0.7619457505        1.9527589007        0.6186111024
 C         -0.5849917933        2.2706821229        1.9636704544
 C         -1.6141163542        2.1072751286        2.8698998495
 C         -2.8375533387        1.6089032811        2.4561011354
 C         -3.0219200372        1.2838580631        1.1175416315
 C         -1.9910525133        1.4644122174        0.2048550456
 H         -2.1637764158        1.2053984716       -0.8254008958
 N         -4.2555775360        0.7866034404        0.6730494098
 S         -4.3591691724       -0.3483139329       -0.5435415254
 O         -4.0849463395        0.2593903357       -1.8218516152
 O         -5.6955523753       -0.8910829911       -0.3928619164
 C         -3.1792164655       -1.6400980826       -0.1946932170
 C         -2.6246981196       -2.3177944687       -1.2592863067
 C         -1.7613082450       -3.3711285285       -1.0108068440
 C         -1.4643905642       -3.7251451980        0.2945243420
 C         -2.0295245089       -3.0348177085        1.3542215104
 C         -2.9008621977       -1.9859876218        1.1113901162
 H         -3.3467895622       -1.4367630767        1.9248594621
 H         -1.7889923085       -3.3056843996        2.3703173824
 H         -0.7808894906       -4.5374928748        0.4870903535
 H         -1.3127518870       -3.9017964771       -1.8355546987
 H         -2.8646938707       -1.9973033743       -2.2605326397
 H         -4.9383365500        0.6162467877        1.3966456087
 H         -3.6440718747        1.4761324057        3.1613018499
 H         -1.4638637124        2.3633329283        3.9077233769
 H          0.3766445768        2.6448118927        2.2869212982
 H          0.9356486700        3.0360285323       -0.0636572337
 C          0.0256116299        2.1467702802       -1.7807662676
 C         -0.5877093168        3.3915425279       -2.3461969274
 C          0.8114350075        3.0075703554       -2.7217355174
 H          0.9966597019        2.6430260496       -3.7211084092
 H          1.6273335646        3.5826959551       -2.3086326568
 H         -1.3689452976        3.2898580929       -3.0842305841
 H         -0.7218126805        4.2285197465       -1.6775525507
 H         -0.3262893909        1.1938207977       -2.1587171674
