  62
        -98.93915011
 C         -2.4649665684       -1.0428291061        0.3811751610
 C         -2.5994645812        0.1353706298        1.1613173648
 C         -3.7932794601        0.9528081641        0.9113823822
 C         -4.6884295272        0.5419396653       -0.0050514914
 C         -5.9247732139        1.2964112635       -0.3980843557
 C         -5.6509101881        2.2361691109       -1.5805204296
 C         -4.4098077997        3.1102449831       -1.4001620611
 H         -3.5222248872        2.4730181625       -1.3900293292
 H         -4.3334898310        3.7525370231       -2.2801561854
 C         -4.4233561839        3.9779909091       -0.1339235026
 H         -5.4410414540        4.0583692070        0.2496952787
 H         -4.0947165624        4.9857374260       -0.3963237585
 C         -3.5000306728        3.4863884990        0.9826714465
 H         -2.4975013979        3.3129624973        0.5822920446
 H         -3.4191596857        4.2791506648        1.7313332806
 C         -3.9527643176        2.2148060603        1.7115814815
 H         -3.3163100200        2.0927862762        2.5930769556
 H         -4.9855413727        2.3305004446        2.0468981143
 H         -6.5267920724        2.8707832987       -1.7266310638
 H         -5.5148217104        1.6307781723       -2.4794557616
 H         -6.6893609079        0.5742007957       -0.6887560711
 H         -6.2825810213        1.8658989862        0.4574442560
 O         -4.5406187032       -0.6027746880       -0.7153552221
 C         -3.4279816247       -1.4176167202       -0.5565633769
 O         -3.4420840568       -2.4222922358       -1.2925862901
 H          0.9728357350       -0.3240584772        0.6662694797
 C          0.8638351485       -0.8307641874       -0.2823763873
 C         -0.2193175416       -1.6717792896       -0.4989477979
 C         -0.3476599497       -2.2925919496       -1.7374051271
 C          0.5963545746       -2.0810601520       -2.7255133350
 C          1.6914208208       -1.2673729182       -2.4957781753
 C          1.8216707006       -0.6312638691       -1.2665766682
 N          2.9084269596        0.2205809746       -1.0131336824
 S          3.5508020997        0.2600783549        0.5484474742
 O          3.6018489120       -1.0772691023        1.0947648891
 O          2.8350594390        1.2432050922        1.3218928805
 C          5.2004054097        0.8466523063        0.2076562215
 C          6.2198917096       -0.0713377698        0.0384736159
 C          7.4943428730        0.3882573067       -0.2540232590
 C          7.7260697713        1.7502920301       -0.3744353124
 C          6.6931476004        2.6595713975       -0.2007808674
 C          5.4165928209        2.2068753712        0.0927885960
 H          4.5848967230        2.8749083686        0.2458617435
 H          6.8776257307        3.7178062359       -0.2917733682
 H          8.7186241171        2.1057707681       -0.6017895405
 H          8.2999430720       -0.3159461948       -0.3857275551
 H          5.9948039819       -1.1196568418        0.1516757491
 H          3.6308366717        0.1574955129       -1.7174110457
 H          2.4352616929       -1.1174415697       -3.2636192286
 H          0.4845210387       -2.5673050849       -3.6829197618
 H         -1.2033772493       -2.9210887347       -1.9251254792
 C         -1.2210675342       -1.8850960638        0.6113352693
 H         -0.7746289850       -1.4869729775        1.5335401862
 C         -1.5213610717       -3.3557860095        0.8232403974
 C         -0.4601895901       -4.2259212972        1.4249602409
 C         -1.6830895134       -3.8770920623        2.2179071984
 H         -2.4189133486       -4.6465582519        2.3974008835
 H         -1.5802239226       -3.1725010159        3.0306163789
 H          0.4737170320       -3.7551849030        1.6963290531
 H         -0.3539977827       -5.2362440525        1.0610065796
 H         -2.1539664409       -3.7854449366        0.0577957989
 O         -1.7613888883        0.4831845279        2.0375596243
