  62
        -98.93904818
 C         -1.7147894745       -0.8543582160        0.1308605291
 C         -3.0138735994       -1.1576744600        0.6019936833
 C         -3.9867979039       -0.0555039521        0.5712557317
 C         -3.5943907528        1.1520786294        0.1255657148
 C         -4.4861223115        2.3493394984       -0.0428690254
 C         -5.3351277572        2.1968573400       -1.3212532812
 C         -6.8374972484        2.0678874374       -1.0689101111
 H         -7.3005287835        1.7534448277       -2.0067172322
 H         -7.2407269412        3.0507958426       -0.8161841079
 C         -7.2475462213        1.0944328567        0.0404466410
 H         -8.3176465072        0.9109354649       -0.0773552906
 H         -7.1195569845        1.5713476173        1.0133202361
 C         -6.5159684345       -0.2540007275        0.0548678005
 H         -6.1334513007       -0.4953548749       -0.9371866706
 H         -7.2394146554       -1.0300281852        0.3132516319
 C         -5.3706991530       -0.3504148328        1.0802027975
 H         -5.3189595022       -1.3790559483        1.4492837639
 H         -5.5912900563        0.2942817687        1.9355109917
 H         -4.9797843033        1.3194959278       -1.8659646334
 H         -5.1709693367        3.0569783392       -1.9721541484
 H         -3.8429226407        3.2262997760       -0.1169218904
 H         -5.1254737683        2.4579209706        0.8303574766
 O         -2.3313885352        1.4079925061       -0.3044101157
 C         -1.3614438412        0.4166954792       -0.3185136185
 O         -0.2513686929        0.7901213775       -0.7402636182
 O         -3.3417267964       -2.2954932469        1.0347595336
 C         -0.6646793716       -1.9499366414        0.1102949829
 C          0.5400130876       -1.5355202947        0.9173811756
 C          0.3537162389       -1.1108897568        2.2314931707
 C          1.4267497183       -0.7239175719        3.0094916492
 C          2.7108460349       -0.7444232440        2.4917710357
 C          2.9090630887       -1.1718633262        1.1856327648
 C          1.8287721256       -1.5744148422        0.4101463645
 H          2.0162645157       -1.8956979108       -0.6001393558
 N          4.2045490793       -1.2312560420        0.6366626170
 S          4.5465879295       -0.3956993227       -0.7741557820
 O          3.7084824786       -0.8706086449       -1.8432521636
 O          5.9722879551       -0.5607894854       -0.9587154307
 C          4.1953463761        1.3097295427       -0.3857974206
 C          5.2506154132        2.1358519819       -0.0473903026
 C          4.9898109893        3.4467882511        0.3151022338
 C          3.6811500174        3.9056677344        0.3434902714
 C          2.6347081751        3.0620327999        0.0058847845
 C          2.8869582547        1.7491850311       -0.3634220561
 H          2.0778374121        1.0874944955       -0.6300150418
 H          1.6124741475        3.4056582343        0.0246873205
 H          3.4747498143        4.9255123877        0.6281631471
 H          5.8034660495        4.1044792189        0.5754909922
 H          6.2512141496        1.7362941475       -0.0869722813
 H          4.9373053182       -1.0544235601        1.3101760197
 H          3.5513666460       -0.4370827171        3.0954960250
 H          1.2640733595       -0.3976874336        4.0256064014
 H         -0.6503486125       -1.0886331391        2.6331421779
 H         -1.1317474234       -2.8121664725        0.6094127318
 C         -0.3362529478       -2.3366064933       -1.3163719144
 C          0.1468501689       -3.7200845506       -1.6294437756
 C         -1.2327301963       -3.2981318790       -2.0347162317
 H         -1.4358546017       -3.1303820181       -3.0818761341
 H         -2.0725643944       -3.6974801030       -1.4848432017
 H          0.8963837036       -3.8398914709       -2.3974605203
 H          0.2441681015       -4.4131263608       -0.8074369595
 H          0.0746436391       -1.5138155883       -1.8921471652
