  62
        -98.93668456
 C         -2.3297422203       -0.5930023392        0.0453913848
 C         -3.3686461504       -0.3141299282        0.9663033386
 C         -4.2918277120        0.7741245386        0.6066327917
 C         -4.0957131195        1.4516318474       -0.5374998469
 C         -4.8743899207        2.6241704817       -1.0797022858
 C         -6.4044790047        2.5687574380       -0.9746705705
 C         -7.0124156122        1.1638465289       -1.0965671713
 H         -7.8047249035        1.1839231707       -1.8472006104
 H         -6.2557373779        0.4568451395       -1.4410381647
 C         -7.6209653789        0.6609288356        0.2147080464
 H         -8.1797514118        1.4775482755        0.6770437019
 H         -8.3339950276       -0.1354651867       -0.0118767628
 C         -6.6240899872        0.1002629568        1.2283661106
 H         -7.1673482148       -0.1113323207        2.1525065784
 H         -6.2243075323       -0.8512608373        0.8673731010
 C         -5.4301499190        1.0114624256        1.5569965789
 H         -5.0588332404        0.7341160028        2.5472831460
 H         -5.7261529270        2.0573562678        1.5782566379
 H         -6.7218290627        3.0118794194       -0.0318127703
 H         -6.7978241958        3.2058606509       -1.7686412536
 H         -4.5819551123        2.6968554320       -2.1299871928
 H         -4.5140793505        3.5294556875       -0.5824758844
 O         -3.0732486381        1.1582570877       -1.3893318635
 C         -2.1708780757        0.1385313697       -1.1303282763
 O         -1.3037705867       -0.0073078419       -2.0128488160
 O         -3.5136772718       -0.9415217188        2.0490406942
 C         -1.3445855248       -1.6994617459        0.3835920956
 C          0.0017180700       -1.0718726638        0.6463379669
 C          0.2157027518       -0.4249981195        1.8609799898
 C          1.4184552609        0.2011224810        2.1257063541
 C          2.4314980615        0.2042653277        1.1821080458
 C          2.2283989764       -0.4368144123       -0.0317668647
 C          1.0233565409       -1.0789934924       -0.2896153493
 H          0.8765696097       -1.5635354228       -1.2420494178
 N          3.2422596689       -0.4162414970       -1.0029644206
 S          4.8053245979       -0.8218525259       -0.5572147367
 O          5.4405418937       -1.2826016402       -1.7725883877
 O          4.8161746567       -1.7385557965        0.5592673664
 C          5.5340219685        0.7308501960       -0.0781662129
 C          6.1151581020        0.8647143034        1.1675284967
 C          6.6885343834        2.0787132484        1.5129302216
 C          6.6717912232        3.1312993557        0.6107837067
 C          6.0857604508        2.9800859819       -0.6372846275
 C          5.5115846757        1.7689611438       -0.9888225082
 H          5.0491754886        1.6105545864       -1.9489720137
 H          6.0741065050        3.8009206301       -1.3363003129
 H          7.1179842364        4.0752768386        0.8814291710
 H          7.1444153573        2.1983683022        2.4826577751
 H          6.1006770099        0.0203566359        1.8382766728
 H          2.9806682457       -0.8481761457       -1.8768132898
 H          3.3702243172        0.6963529356        1.3777508521
 H          1.5694948033        0.6961624054        3.0729757435
 H         -0.5808736383       -0.4155095363        2.5920776970
 H         -1.7069796438       -2.1324610328        1.3260861234
 C         -1.3266277511       -2.7828242150       -0.6736682572
 C         -0.7010105873       -4.1077010992       -0.3581392669
 C         -2.1890165600       -3.9946220079       -0.4945408580
 H         -2.6614955482       -4.4237700429       -1.3654607805
 H         -2.7902842221       -4.0520156442        0.4009197625
 H         -0.1498964981       -4.6175792696       -1.1338606430
 H         -0.2892385221       -4.2402542195        0.6310501376
 H         -1.2206339382       -2.3975997802       -1.6808891189
