  62
        -98.93884243
 C         -1.6733515462       -0.4485323768        0.3848578842
 C         -2.2139330569        0.4118237311       -0.6028927101
 C         -3.5990773145        0.1441595843       -1.0093020272
 C         -4.2566998750       -0.8906553680       -0.4550407140
 C         -5.6873633032       -1.2463344349       -0.7358253785
 C         -6.6360311477       -0.5481443074        0.2486696464
 C         -6.3777152763        0.9511738151        0.3978941315
 H         -7.1240482679        1.3419249498        1.0929765614
 H         -5.3992585636        1.0995331142        0.8602908965
 C         -6.4412813818        1.7401738648       -0.9174455287
 H         -6.9661489848        1.1565338357       -1.6746815247
 H         -7.0207220663        2.6508929970       -0.7517473291
 C         -5.0795287181        2.1719670232       -1.4646214875
 H         -4.5131794339        2.6775557050       -0.6785839214
 H         -5.2493148864        2.8978768531       -2.2643353911
 C         -4.2070277991        1.0505178585       -2.0425334505
 H         -4.7825648295        0.4748182879       -2.7704207745
 H         -3.3659912186        1.5181651871       -2.5628657027
 H         -7.6620431224       -0.7112327888       -0.0863319759
 H         -6.5207384660       -1.0146236900        1.2298081475
 H         -5.9336605142       -0.9628203783       -1.7573758950
 H         -5.8005068323       -2.3268483471       -0.6313679156
 O         -3.6988217070       -1.7122280351        0.4696240847
 C         -2.4006158941       -1.5114458991        0.9234641462
 O         -2.0289047324       -2.3388525709        1.7760825394
 O         -1.5655513211        1.3633110601       -1.1163491086
 C         -0.2610416573       -0.1747785731        0.8514680782
 C          0.7595121179       -1.1717573822        0.3516081572
 C          0.4325144339       -2.2781786526       -0.4204732475
 C          1.4172092684       -3.1363697041       -0.8805253544
 C          2.7521264556       -2.8795111451       -0.6269859240
 C          3.0935410514       -1.7621304222        0.1225659463
 C          2.1011785361       -0.9408076840        0.6335007994
 H          2.3811417580       -0.1064956852        1.2542483970
 N          4.4434560611       -1.3812681308        0.3381904323
 S          4.9468288569       -0.2021903372       -0.7653863656
 O          4.6532822448       -0.6248673793       -2.1186728446
 O          6.3424876626        0.0345812393       -0.4747520226
 C          3.9673924006        1.2203888103       -0.3490373858
 C          4.3639846846        2.0226371357        0.7023965807
 C          3.5626542713        3.0954414526        1.0602365990
 C          2.3801916925        3.3349894791        0.3749793674
 C          1.9960181013        2.5202295844       -0.6804229582
 C          2.8007141974        1.4545776396       -1.0510761823
 H          2.5351787006        0.7980626431       -1.8641154643
 H          1.0653190390        2.6926818441       -1.1992981968
 H          1.7480049295        4.1598488995        0.6654509502
 H          3.8537735424        3.7349205364        1.8780504717
 H          5.2847146468        1.7939848374        1.2132065593
 H          5.0879339569       -2.1596437248        0.2782144512
 H          3.5228215997       -3.5266552069       -1.0184175025
 H          1.1397101508       -4.0020029294       -1.4633744755
 H         -0.6028759467       -2.4750397372       -0.6573098485
 H          0.0032705337        0.7957278521        0.4044495906
 C         -0.1885589395       -0.0364343927        2.3625465900
 C          0.6662097424        1.0197092653        2.9947175482
 C         -0.8256572064        1.1549200811        3.0118819027
 H         -1.3547369487        1.0138166135        3.9421645729
 H         -1.2768686042        1.8893930080        2.3604976873
 H          1.1709881218        0.7832976115        3.9188835112
 H          1.2179089984        1.6821044626        2.3442759421
 H         -0.2842299951       -0.9867371951        2.8739748085
