  62
        -98.94077914
 C         -1.9255391953       -1.5300698804       -0.0142519278
 C         -1.7282538322       -0.2509278645       -0.5798525077
 C         -2.9224850814        0.6043019731       -0.7085982518
 C         -4.1202923325        0.1288045325       -0.3195476604
 C         -5.5026531796        0.7464175756       -0.3655430279
 C         -5.6824442325        2.2346769147       -0.6527846950
 C         -5.1804033909        3.1647735040        0.4524289006
 H         -5.2369606274        4.1924494374        0.0873297641
 H         -5.8553149338        3.0788495871        1.3078161669
 C         -3.7657342604        2.8921646783        0.9577046225
 H         -3.5577073893        3.5994747740        1.7650825365
 H         -3.7178070912        1.8900973488        1.3887549330
 C         -2.6569071250        3.0377905113       -0.0821954392
 H         -2.6969802751        4.0347612073       -0.5255616310
 H         -1.7027117064        2.9387456867        0.4430799876
 C         -2.6747650940        1.9967118585       -1.2134603040
 H         -3.3908868543        2.2648181085       -1.9859835287
 H         -1.6840164051        1.9797125032       -1.6776794268
 H         -6.7574558730        2.4028549123       -0.7607291375
 H         -5.2291308416        2.4896173131       -1.6062151746
 H         -6.0546128744        0.1783708472       -1.1225414125
 H         -5.9688658539        0.5080395721        0.5958749430
 O         -4.2650943595       -1.1327576657        0.1858328781
 C         -3.1865355450       -1.9783290825        0.3720143145
 O         -3.4744876540       -3.0788256363        0.8842343422
 H          1.9659239515       -2.0783293662       -0.3138065483
 C          1.6354684190       -1.6540408106        0.6189397780
 C          0.3119990604       -1.7523353427        1.0169263763
 C         -0.0621706367       -1.1853814491        2.2336226331
 C          0.8600864528       -0.5251369411        3.0210458271
 C          2.1764926944       -0.4083101517        2.6082642470
 C          2.5624893504       -0.9762138810        1.4012388883
 N          3.8986494464       -0.8958517459        0.9641519226
 S          4.2457784220       -0.2167492701       -0.5274795580
 O          3.6038629916       -0.9699858899       -1.5722818952
 O          5.6912899758       -0.1632216396       -0.5739858049
 C          3.5975045250        1.4429598737       -0.4355170575
 C          4.4713994264        2.4712807167       -0.1366126462
 C          3.9772899134        3.7586261297       -0.0071726265
 C          2.6201675396        3.9945449704       -0.1694734533
 C          1.7578717031        2.9504742323       -0.4638252013
 C          2.2439532817        1.6586695533       -0.5985876942
 H          1.5796267953        0.8399464452       -0.8253176677
 H          0.7006480645        3.1223542702       -0.5910356087
 H          2.2318902702        4.9957485705       -0.0672433233
 H          4.6482893104        4.5712714614        0.2205227988
 H          5.5187568394        2.2413486418       -0.0241219532
 H          4.5271567024       -0.5082400907        1.6543109482
 H          2.8984036891        0.1142705768        3.2175738741
 H          0.5520657054       -0.0902065904        3.9598938532
 H         -1.0934225373       -1.2689588697        2.5502840912
 C         -0.7395634414       -2.4544561064        0.1922818192
 H         -1.1164314805       -3.3104099079        0.7713622088
 C         -0.2281397954       -2.9591933763       -1.1405944797
 C          0.4659196318       -4.2840681720       -1.2264251228
 C         -0.9138845855       -4.1224863750       -1.7885487470
 H         -1.0379556622       -4.1163229141       -2.8611326006
 H         -1.7409015553       -4.5691907879       -1.2554985816
 H          1.2933106233       -4.3867389103       -1.9126516128
 H          0.5780760626       -4.8497408379       -0.3136749898
 H          0.1192214141       -2.1620500267       -1.7886955252
 O         -0.6049115623        0.1670573154       -0.9624135608
