  62
        -98.94067181
 C          1.9503679163        0.8499007163        0.7160025684
 C          1.8684931807        0.1870146263       -0.5342181968
 C          2.0904860924       -1.2644901218       -0.5022103581
 C          2.2655180804       -1.8930683323        0.6726541016
 C          2.4640809241       -3.3718962281        0.8684158317
 C          3.9135135081       -3.8400536396        0.6771449089
 C          4.4094532539       -3.8507379808       -0.7694164095
 H          5.3523949327       -4.4008095874       -0.7798813736
 H          3.7022649548       -4.4024739293       -1.3893434355
 C          4.6442140508       -2.4573940624       -1.3692437604
 H          4.7004404761       -1.7198263022       -0.5653435358
 H          5.6055703706       -2.4407712604       -1.8872897086
 C          3.5804764720       -2.0125688861       -2.3731311755
 H          3.6010423475       -2.6700842484       -3.2448937452
 H          3.8257624851       -1.0014612093       -2.7076836434
 C          2.1529176836       -1.9921775616       -1.8106843705
 H          1.5074312231       -1.4586172408       -2.5128020443
 H          1.7752651296       -3.0082743905       -1.6970945264
 H          4.5662745401       -3.2066489484        1.2822757911
 H          3.9803600129       -4.8573049503        1.0696608498
 H          2.1617888942       -3.5910680168        1.8949908962
 H          1.8075653141       -3.9189742471        0.1908583940
 O          2.2615131094       -1.2316809642        1.8621144994
 C          2.1085104352        0.1444043825        1.9100761487
 O          2.1276168572        0.6181195568        3.0658433627
 H         -0.6521425670        1.2002303062        1.0914069691
 C         -0.6798895014        1.9692415234        0.3310548313
 C          0.4693005935        2.7010201189        0.0563641116
 C          0.4120342148        3.6879360648       -0.9177073568
 C         -0.7628365616        3.9096974159       -1.6159573954
 C         -1.8902189886        3.1484559774       -1.3715130793
 C         -1.8451511575        2.1657943638       -0.3878636720
 N         -2.9755949553        1.3802290845       -0.0973635737
 S         -2.7325894360       -0.2156408153        0.3982685454
 O         -2.4596796481       -0.2229743407        1.8152502665
 O         -1.7624095197       -0.8740441976       -0.4470555926
 C         -4.3618515088       -0.8796193622        0.1028903397
 C         -5.3467145019       -0.6706021774        1.0497667467
 C         -6.6235046553       -1.1510545179        0.8056760702
 C         -6.8933930187       -1.8270130308       -0.3751018654
 C         -5.8944372257       -2.0311527016       -1.3150893977
 C         -4.6154664881       -1.5523379914       -1.0774852026
 H         -3.8045237494       -1.6934981270       -1.7741458764
 H         -6.1057472798       -2.5601097281       -2.2304005155
 H         -7.8878114015       -2.1999097389       -0.5626981764
 H         -7.4016146902       -0.9968408446        1.5356144621
 H         -5.0858350919       -0.1475364225        1.9549865761
 H         -3.6845082304        1.4372545509       -0.8162342774
 H         -2.7960108926        3.3054300275       -1.9372518128
 H         -0.7933956403        4.6736158298       -2.3781596535
 H          1.2928884806        4.2622495758       -1.1530823400
 C          1.7099490479        2.3460247870        0.8394428340
 H          1.4870254257        2.5075043525        1.9080498261
 C          2.9148291612        3.2142498093        0.5109312365
 C          4.3085521214        2.6773566570        0.6399741494
 C          3.7510407091        2.9964651293       -0.7128320896
 H          4.1345278340        3.8635477174       -1.2306299832
 H          3.4750830010        2.1828799422       -1.3639848765
 H          5.0704407972        3.3221964140        1.0516949707
 H          4.4181060032        1.6387351236        0.9178403750
 H          2.7687348779        4.2432293093        0.8251922530
 O          1.6317671360        0.7640621848       -1.6267014949
