  62
        -98.94387752
 C         -1.8809785112       -0.5816890003        0.8204995869
 C         -2.2267736538        0.4948495147       -0.0310631443
 C         -3.6642089882        0.7878579237       -0.1373547413
 C         -4.5419611672        0.0571546694        0.5742435976
 C         -6.0335021351        0.2144143705        0.5191986909
 C         -6.6492721933       -0.7003840269       -0.5487360865
 C         -5.9573382364       -0.6140344016       -1.9090786041
 H         -4.9402780407       -1.0020479339       -1.8175950326
 H         -6.4944649654       -1.2776828942       -2.5901127115
 C         -5.9067907387        0.7990663086       -2.5065925853
 H         -6.6422628829        1.4364553238       -2.0144846718
 H         -6.1808185776        0.7432921311       -3.5622331940
 C         -4.5323386356        1.4677008409       -2.4388656887
 H         -3.7753968207        0.7939998737       -2.8487117605
 H         -4.5547822907        2.3574078072       -3.0740667762
 C         -4.0745062662        1.9136458734       -1.0443244738
 H         -3.1826472710        2.5351021162       -1.1703054704
 H         -4.8531513684        2.5213266636       -0.5785320567
 H         -7.7040257916       -0.4418654725       -0.6580714037
 H         -6.5865368092       -1.7329998709       -0.1979808660
 H         -6.4436030960       -0.0533156677        1.4944141082
 H         -6.2762969143        1.2536895344        0.3066186974
 O         -4.1679693970       -0.9525185433        1.4009405202
 C         -2.8348554339       -1.3032677357        1.5379538645
 O         -2.6292144885       -2.2523169798        2.3211921973
 H          2.0024685446       -0.0797789955        0.0273409463
 C          1.6214225319        0.5086638802        0.8447536256
 C          0.4028557078        0.1936850154        1.4261762572
 C         -0.0559823365        0.9780582332        2.4814930429
 C          0.6709133167        2.0672676513        2.9195685940
 C          1.8735086160        2.3950871870        2.3188171096
 C          2.3505825700        1.6087835465        1.2770208309
 N          3.5921911021        1.8902120271        0.6967681528
 S          4.0062460376        1.4357871804       -0.8528045992
 O          5.2049012772        2.2003663041       -1.1296189927
 O          2.9243237181        1.6018308598       -1.7938310652
 C          4.4461193750       -0.2844729325       -0.7117354508
 C          5.0885769221       -0.7279265920        0.4272508027
 C          5.4649565102       -2.0591410807        0.5076405062
 C          5.2043274074       -2.9184837729       -0.5487177144
 C          4.5647102456       -2.4565076704       -1.6884491336
 C          4.1801168907       -1.1272232440       -1.7725802095
 H          3.6681115089       -0.7288874992       -2.6345537531
 H          4.3632060901       -3.1253446096       -2.5103330188
 H          5.4990037071       -3.9539333178       -0.4841617745
 H          5.9612829676       -2.4221953151        1.3931473852
 H          5.2769496537       -0.0346419052        1.2296526317
 H          4.0206303405        2.7596416497        0.9755724810
 H          2.4381974056        3.2521111935        2.6527251613
 H          0.2963720652        2.6718084345        3.7320344617
 H         -1.0001292604        0.7268673538        2.9460450455
 C         -0.4262462028       -0.9850995345        0.9790468043
 H         -0.4076193311       -1.7387020890        1.7804201687
 C          0.0760656053       -1.6250524872       -0.2988516204
 C          1.1247298236       -2.6939332604       -0.2444695145
 C         -0.2908947567       -3.0494812033       -0.5836282473
 H         -0.5258358090       -3.3282534895       -1.5999461817
 H         -0.8844477240       -3.5633929767        0.1586757661
 H          1.4989259866       -2.9765669437        0.7277033365
 H          1.8657407735       -2.7293518067       -1.0285277034
 H          0.0897236486       -0.9330242947       -1.1342955681
 O         -1.3823955801        1.1779897252       -0.6680909688
