  62
        -98.93909861
 C         -2.3535466167       -1.2354242480       -0.0936344960
 C         -3.3838015174       -0.8061808321        0.7779979951
 C         -4.2604682219        0.2820612699        0.3056601575
 C         -4.0331239653        0.8102663249       -0.9112384549
 C         -4.7566018451        1.9448634093       -1.5866352290
 C         -4.3610388392        3.3184064252       -1.0215742910
 C         -4.2865892905        3.3890588367        0.5013985311
 H         -3.5644103562        2.6523378054        0.8586486259
 H         -3.8987126077        4.3757869901        0.7681762847
 C         -5.6155243990        3.1963957258        1.2283592820
 H         -6.3217771265        3.9576948425        0.8898097505
 H         -5.4292508622        3.3658982061        2.2918931314
 C         -6.2706413625        1.8219116218        1.0751074974
 H         -6.7641107863        1.7268074102        0.1116647753
 H         -7.0552473026        1.7499785135        1.8338871886
 C         -5.3335099950        0.6406536966        1.3054730483
 H         -4.8200935278        0.7717164740        2.2647327230
 H         -5.9382310793       -0.2663447082        1.4247950256
 H         -3.3733434600        3.5733014824       -1.4144336188
 H         -5.0720586245        4.0602617395       -1.3892485164
 H         -4.4770610458        1.9102687831       -2.6420113930
 H         -5.8301688760        1.7944053132       -1.5230004154
 O         -3.0232490504        0.3710397150       -1.7150072051
 C         -2.1604590547       -0.6422462740       -1.3403743934
 O         -1.2986016871       -0.9136566141       -2.2004688669
 O         -3.5702556997       -1.3119952841        1.9171762998
 C         -1.4282029945       -2.3387702633        0.3948602148
 C         -0.0944264603       -1.7164863690        0.7267598201
 C          0.1271358534       -1.2043173231        2.0018889056
 C          1.3118490448       -0.5607478060        2.3077893548
 C          2.2949981411       -0.4029531468        1.3464002403
 C          2.0754286900       -0.8940197123        0.0668665167
 C          0.8965912620       -1.5637037273       -0.2310820368
 H          0.7316175599       -1.9247612928       -1.2341188193
 N          3.0589034140       -0.7141041262       -0.9239742837
 S          3.6308909313        0.8496655697       -1.1572641714
 O          2.6516405770        1.8416723959       -0.7760147857
 O          4.0900340431        0.8884668800       -2.5288275651
 C          5.0454457148        0.9402888173       -0.0773957146
 C          5.1270917382        1.9402817407        0.8717188317
 C          6.2405804798        1.9928828141        1.6960307393
 C          7.2477833434        1.0504238322        1.5563750947
 C          7.1520826398        0.0540745725        0.5961408146
 C          6.0422883137       -0.0034056747       -0.2315752561
 H          5.9303771883       -0.7575364613       -0.9924988963
 H          7.9374648880       -0.6768568856        0.4903854636
 H          8.1123984741        1.0929381611        2.1997299099
 H          6.3165422431        2.7672281639        2.4424394949
 H          4.3165958172        2.6479001277        0.9471004762
 H          2.7990165200       -1.1203978953       -1.8121422265
 H          3.2160529575        0.1086249899        1.5732454880
 H          1.4709958154       -0.1729151825        3.3024534343
 H         -0.6511569685       -1.3021153332        2.7455943494
 H         -1.8774761352       -2.6981106354        1.3301812647
 C         -1.3354902203       -3.4972133108       -0.5756711492
 C         -0.7517324679       -4.7950640912       -0.1058856388
 C         -2.2213094881       -4.6892917685       -0.3782112054
 H         -2.6224221102       -5.1815153083       -1.2515170135
 H         -2.8978948544       -4.6752090421        0.4636179613
 H         -0.1410663901       -5.3637638626       -0.7901978192
 H         -0.4298949318       -4.8508196208        0.9229251674
 H         -1.1410882033       -3.1935633005       -1.5966530888
