  62
        -98.94592927
 C          2.1247159990        1.4907816319       -0.0075575312
 C          1.8425065997        0.3689362514       -0.8240083107
 C          2.9016661205       -0.6485841078       -0.8943686106
 C          4.0550274605       -0.4497084167       -0.2307797609
 C          5.1892170812       -1.4306034358       -0.1695152507
 C          5.0466551522       -2.3669432855        1.0389535396
 C          3.6596908927       -2.9959221165        1.1741592701
 H          3.6879226233       -3.6586789062        2.0417906104
 H          2.9313841321       -2.2116125670        1.3932818600
 C          3.1974486830       -3.7857007073       -0.0582148795
 H          2.7620776738       -4.7296477475        0.2759212809
 H          4.0562326131       -4.0297348769       -0.6847198496
 C          2.1356675823       -3.0782067584       -0.9024497995
 H          1.7261017627       -3.8054019890       -1.6085467192
 H          1.3191975222       -2.7435956388       -0.2576800895
 C          2.6268934612       -1.8752731383       -1.7176346801
 H          3.5072532113       -2.1566147279       -2.2989641001
 H          1.8319272609       -1.5940825192       -2.4143955400
 H          5.2527703219       -1.7943781450        1.9463906194
 H          5.7990490227       -3.1535322650        0.9566044598
 H          5.2139611015       -2.0096982361       -1.0904885305
 H          6.1226449008       -0.8726937651       -0.0772144111
 O          4.3021466998        0.6598189437        0.5121604187
 C          3.3392647690        1.6440891631        0.6609192785
 O          3.6779350085        2.5904067136        1.4004715781
 H         -1.4852044719        2.4963711488       -0.8618329008
 C         -1.3944059913        1.9842114193        0.0828713994
 C         -0.1756887012        1.9491312104        0.7387872891
 C         -0.0931977504        1.2721733409        1.9535219594
 C         -1.2010791998        0.6491121503        2.4941401898
 C         -2.4161166000        0.6776929991        1.8308665500
 C         -2.5065979307        1.3442108586        0.6170670998
 N         -3.7286213109        1.3617658574       -0.0738646699
 S         -4.6315176898       -0.0446910733       -0.1239367693
 O         -5.4028129801        0.0487862857       -1.3443274391
 O         -5.4015481795       -0.1667405134        1.0899806909
 C         -3.4627556588       -1.3902345624       -0.2274803590
 C         -2.4700330391       -1.3402961720       -1.1853917092
 C         -1.5671972383       -2.3869342514       -1.2700161990
 C         -1.6740498673       -3.4638859211       -0.4038619186
 C         -2.6798905771       -3.5025116416        0.5493499116
 C         -3.5826558978       -2.4556593222        0.6420186314
 H         -4.3744007177       -2.4405881126        1.3736208915
 H         -2.7604645163       -4.3414709414        1.2217811719
 H         -0.9674457067       -4.2761413906       -0.4724367385
 H         -0.7763033985       -2.3416102410       -2.0007964792
 H         -2.3931245898       -0.4930829822       -1.8469754296
 H         -3.6826345214        1.8005267371       -0.9817225901
 H         -3.2911528595        0.1971854786        2.2376405804
 H         -1.1203000193        0.1314115006        3.4379336600
 H          0.8594512597        1.2386936618        2.4652423092
 C          1.0770683382        2.5752226912        0.1767189087
 H          1.4821716079        3.2671728217        0.9284653183
 C          0.8655008974        3.3325925505       -1.1170540316
 C          0.3020122064        4.7209272301       -1.0889326519
 C          1.7466617165        4.5043878011       -1.4235613522
 H          2.0687871461        4.6546485110       -2.4431323323
 H          2.4912111664        4.7718714119       -0.6879267624
 H         -0.3659685740        5.0255733693       -1.8806571219
 H          0.0624443462        5.1429213103       -0.1246084120
 H          0.5953009477        2.6858273200       -1.9438514713
 O          0.7677141097        0.2212838303       -1.4604815504
