  62
        -98.93902755
 C          1.8256341405       -0.5217841996        0.0084020271
 C          2.9122861667       -0.5678977822       -0.9017323423
 C          4.1020600572        0.2447416108       -0.5872937379
 C          4.0922879599        0.9932049013        0.5310200787
 C          5.1882023427        1.8667024714        1.0808183923
 C          6.3150393348        1.0570702483        1.7425737288
 C          6.7661927264       -0.1743791747        0.9615295323
 H          7.4845904425       -0.7159406276        1.5825958318
 H          5.9104904277       -0.8339649129        0.8065684477
 C          7.4344643096        0.1145954427       -0.3805185756
 H          7.7849413793       -0.8404298554       -0.7802895633
 H          8.3102468261        0.7463720478       -0.2161422008
 C          6.5502353048        0.7758749885       -1.4399753248
 H          7.0727664794        0.6926526856       -2.3975108878
 H          6.4320650746        1.8386134986       -1.2458142002
 C          5.1860750661        0.1202753196       -1.6305195302
 H          4.7439075703        0.4996749243       -2.5597789893
 H          5.3242250531       -0.9541760699       -1.7966717432
 H          5.9590905002        0.7193913596        2.7189985727
 H          7.1661714306        1.7204154082        1.9052571522
 H          4.7293638193        2.5068186169        1.8377651388
 H          5.5806945770        2.5098151186        0.2986684011
 O          3.0234311293        1.0147232196        1.3747887924
 C          1.8751642554        0.2784199809        1.1487136502
 O          1.0050767452        0.4357218554        2.0303773709
 O          2.8982103313       -1.2765453015       -1.9439364005
 C          0.6152905815       -1.3748622501       -0.3322854621
 C         -0.4855708666       -0.5451291211       -0.9480068646
 C         -0.8742501697       -0.7406556565       -2.2678581659
 C         -1.9011412845        0.0058141738       -2.8200859440
 C         -2.5614394941        0.9598187945       -2.0671647834
 C         -2.1743785157        1.1665344379       -0.7493559284
 C         -1.1498977624        0.4137249273       -0.1959285293
 H         -0.8481702228        0.5870398152        0.8263576929
 N         -2.8531521829        2.1268877524        0.0312068465
 S         -4.4981973515        1.8527279444        0.2117461838
 O         -5.1815840474        2.2720278591       -0.9861675706
 O         -4.8796193771        2.5309655995        1.4300014548
 C         -4.6280688052        0.0840897252        0.4008953957
 C         -5.0538064263       -0.6912637942       -0.6582605780
 C         -5.0650802414       -2.0694656589       -0.5158950321
 C         -4.6484951471       -2.6447654594        0.6742298192
 C         -4.2258500234       -1.8514674580        1.7299212818
 C         -4.2097984982       -0.4733694946        1.5927360636
 H         -3.8891655606        0.1747680841        2.3930087941
 H         -3.9044277274       -2.2994662826        2.6567442586
 H         -4.6535433487       -3.7181463246        0.7807946617
 H         -5.3929880791       -2.6894707655       -1.3344633903
 H         -5.3703366358       -0.2034199893       -1.5652925034
 H         -2.4254693286        2.2618444663        0.9368241500
 H         -3.3687881197        1.5466712706       -2.4747277199
 H         -2.1910344762       -0.1573439877       -3.8468025957
 H         -0.3562536310       -1.4766457069       -2.8651914458
 H          0.9701189432       -2.0779672716       -1.0974375583
 C          0.0870544176       -2.1706297473        0.8460410006
 C         -0.7930094863       -3.3542583031        0.5832056547
 C          0.6032894521       -3.5556162201        1.0891536321
 H          0.7440644829       -3.8800806893        2.1092861049
 H          1.3448828165       -3.9404377535        0.4042687887
 H         -1.6163952770       -3.5405136157        1.2545283450
 H         -0.9998032500       -3.6024793517       -0.4465011180
 H         -0.1302346809       -1.5628620059        1.7144075606
