  62
        -98.94402648
 C         -1.4488389649       -1.5364813529       -0.1082754566
 C         -2.3341977001       -0.9440195776        0.8333382716
 C         -3.3170047072        0.0122860914        0.3044134557
 C         -3.3340750675        0.2703633763       -1.0157525120
 C         -4.3151942778        1.1735903287       -1.7052002947
 C         -3.8082617187        2.6171324209       -1.8154448488
 C         -3.2916562934        3.1944197164       -0.4984850167
 H         -2.3788057663        2.6674072939       -0.2173459336
 H         -3.0131499602        4.2335593439       -0.6860891933
 C         -4.2906167146        3.1342828707        0.6649817865
 H         -5.3025137889        3.0054038108        0.2792278296
 H         -4.2653984323        4.0897555437        1.1929461843
 C         -3.9992156419        2.0468941271        1.7018711550
 H         -2.9521059405        2.1050944682        2.0080244956
 H         -4.6088121964        2.2531411812        2.5854714726
 C         -4.3019457918        0.6054354535        1.2726107337
 H         -4.2555389471       -0.0247687089        2.1655672900
 H         -5.3152769833        0.5498296980        0.8682841819
 H         -4.6234595602        3.2372034383       -2.1932150154
 H         -2.9951771639        2.6469409535       -2.5448300028
 H         -4.4842748827        0.7824812670       -2.7103351055
 H         -5.2559206025        1.1519921091       -1.1573957462
 O         -2.4405776837       -0.2728662623       -1.8785860180
 C         -1.4809427988       -1.1834077071       -1.4575241193
 O         -0.7449412069       -1.5791290581       -2.3852564705
 H          1.1902204291       -1.5815165349       -1.4126743188
 C          1.6196445610       -1.5597826798       -0.4220027535
 C          0.8896282375       -2.0584786455        0.6468897542
 C          1.4535646855       -2.0068104392        1.9162720063
 C          2.7161144548       -1.4714822078        2.1077308860
 C          3.4282743135       -0.9483506203        1.0432014158
 C          2.8645029878       -0.9826958125       -0.2253443222
 N          3.5279264283       -0.3415003546       -1.2935139893
 S          3.8090204855        1.2947918063       -1.0234397830
 O          3.6110437949        1.9497914111       -2.2977785293
 O          5.1172507679        1.4559132250       -0.4382291282
 C          2.5710544268        1.7911147935        0.1673710716
 C          1.2413624282        1.5457799602       -0.1162196738
 C          0.2925180985        1.8047039977        0.8582605896
 C          0.6778594125        2.3302425425        2.0813340381
 C          2.0123166958        2.6013612897        2.3386347546
 C          2.9707885197        2.3155121349        1.3796951402
 H          4.0227750691        2.4770166560        1.5497115682
 H          2.3090932406        3.0153298463        3.2886067265
 H         -0.0686437453        2.5204047117        2.8363591887
 H         -0.7425699229        1.5662903512        0.6656411974
 H          0.9563793020        1.1445927015       -1.0768667138
 H          3.0459963804       -0.4625527706       -2.1741379223
 H          4.3972103984       -0.4934730674        1.1739816148
 H          3.1426445661       -1.4444404147        3.0984023190
 H          0.8871814839       -2.3729104408        2.7596325042
 C         -0.5022389334       -2.6002020677        0.4293877028
 H         -0.9111162135       -2.8704114334        1.4120227206
 C         -0.4658286173       -3.8470422528       -0.4335547668
 C         -0.0378738515       -5.1444294754        0.1810604591
 C         -1.4720941326       -4.9314142656       -0.1983436067
 H         -1.8672268698       -5.4609695427       -1.0522955704
 H         -2.1924804904       -4.7817170875        0.5926874657
 H          0.2137823083       -5.1418148653        1.2306628914
 H          0.5559239883       -5.8232018640       -0.4115743793
 H         -0.1745516645       -3.6551137669       -1.4581807212
 O         -2.3208678107       -1.2279719739        2.0592339706
