  62
        -98.93812166
 C          2.0495188506        1.6227550545       -0.2647737525
 C          2.4454144503        0.6189495998       -1.1838728810
 C          3.6839958546       -0.1052677850       -0.8398572689
 C          4.3703250579        0.2266940428        0.2668077703
 C          5.6025368621       -0.4739323803        0.7600021131
 C          5.2429267474       -1.6067870853        1.7315802647
 C          4.1468682579       -2.5396681782        1.2154899696
 H          3.9981489932       -3.3158740747        1.9694194873
 H          3.2086594031       -1.9843744096        1.1397675086
 C          4.4563818993       -3.1954691019       -0.1375436957
 H          5.5260340357       -3.1357128741       -0.3422223116
 H          4.1948446773       -4.2542988562       -0.0813197919
 C          3.6824999338       -2.6096294162       -1.3204050324
 H          3.8108534965       -3.2791547018       -2.1754790263
 H          2.6141933650       -2.5852428825       -1.0863117610
 C          4.1110099823       -1.2065668748       -1.7690844258
 H          5.1913828255       -1.1840796647       -1.9257831752
 H          3.6192009413       -1.0004678707       -2.7245033869
 H          6.1457177568       -2.1842874704        1.9386029302
 H          4.8996396780       -1.1630333235        2.6688993198
 H          6.1541221830       -0.8707263437       -0.0899309682
 H          6.2271495002        0.2542534575        1.2800229486
 O          3.9823339546        1.2248001574        1.1013974529
 C          2.8090900027        1.9209835481        0.8708409079
 O          2.5528987487        2.7873485230        1.7311806428
 O          1.8285166850        0.3252680601       -2.2384599870
 C          0.7631921940        2.4268674596       -0.3778938533
 C         -0.2964445009        1.8070800891        0.4987915298
 C         -1.0193542620        2.5894934626        1.3927528153
 C         -1.9669047782        2.0220949083        2.2256070820
 C         -2.2249664985        0.6647755254        2.1656928774
 C         -1.5126879579       -0.1259596663        1.2716054552
 C         -0.5494081170        0.4423706977        0.4510031603
 H          0.0011406395       -0.1888160899       -0.2306746679
 N         -1.7692279761       -1.5125196857        1.1633883638
 S         -2.5824296062       -1.9749211082       -0.2291733663
 O         -2.8492691899       -3.3871905060       -0.0723781558
 O         -1.8249303036       -1.5769593366       -1.3847651752
 C         -4.1132372142       -1.0600431819       -0.1470662829
 C         -5.2193387579       -1.6544363340        0.4284556324
 C         -6.3832672528       -0.9150127751        0.5650551069
 C         -6.4169618515        0.4034663998        0.1365875577
 C         -5.2973084783        0.9867375034       -0.4367003682
 C         -4.1315349619        0.2509637294       -0.5803205786
 H         -3.2441641405        0.6696306547       -1.0270663089
 H         -5.3233261749        2.0113084482       -0.7710309243
 H         -7.3213630745        0.9803681799        0.2479618712
 H         -7.2566676606       -1.3672799633        1.0066134335
 H         -5.1476615397       -2.6830449507        0.7435489048
 H         -2.2584193552       -1.8909085679        1.9638311897
 H         -2.9652234129        0.2150942390        2.8106008628
 H         -2.5110550207        2.6409001503        2.9220833551
 H         -0.8149156794        3.6485147882        1.4461594231
 H          0.9980112181        3.4146109992        0.0521980059
 C          0.2877191470        2.6705949601       -1.8012062579
 C         -0.7467303094        1.8376192727       -2.4886289700
 C         -1.0851572264        3.2272035881       -2.0449280725
 H         -1.2061620545        3.9922666525       -2.7967446699
 H         -1.7346441918        3.3382997092       -1.1893543222
 H         -0.6054521173        1.6450032805       -3.5414559626
 H         -1.1607749411        0.9903465361       -1.9641927958
 H          1.0887783305        3.0479157891       -2.4287819993
