  62
        -98.93573944
 C         -2.1893693951       -1.2173056696       -0.1043411557
 C         -2.9645071599       -0.5290202857        0.8546340690
 C         -3.8516945640        0.5360274783        0.3509199022
 C         -3.8443145446        0.8220436554       -0.9637987512
 C         -4.6558523625        1.8494338686       -1.7120348301
 C         -4.7820460246        3.2373340970       -1.0649121318
 C         -6.1840817786        3.5341505101       -0.5298285367
 H         -6.3213773244        4.6170792289       -0.4919526932
 H         -6.9163680290        3.1375298233       -1.2360351287
 C         -6.4780567625        2.9831864928        0.8644330665
 H         -5.9206656311        3.5596674443        1.6061391612
 H         -7.5407560814        3.1392728732        1.0641093333
 C         -6.1548672555        1.5010763133        1.0637394212
 H         -6.4494543334        0.9243676681        0.1877615188
 H         -6.7549330991        1.1380715715        1.9008635661
 C         -4.6795215521        1.2325438279        1.3965449196
 H         -4.1836818009        2.1672171463        1.6754777599
 H         -4.6131659374        0.5856353462        2.2770804607
 H         -4.0428041515        3.3467914675       -0.2727359535
 H         -4.5492298625        3.9820654153       -1.8277731112
 H         -4.1696935152        1.9372234285       -2.6862595983
 H         -5.6502389728        1.4356054938       -1.8970236264
 O         -3.0564973192        0.1482969142       -1.8503880228
 C         -2.2175673162       -0.8802787297       -1.4569186675
 O         -1.5635922632       -1.3949675836       -2.3821027267
 O         -2.9185109034       -0.7903376010        2.0889612500
 C         -1.2695479594       -2.3345754247        0.3502554039
 C          0.1673686001       -2.0019219330        0.0288161642
 C          1.0623951955       -2.9211400690       -0.5022466604
 C          2.3735280854       -2.5567359677       -0.7572698477
 C          2.8213603646       -1.2769108480       -0.4884595742
 C          1.9388547626       -0.3528799837        0.0560836329
 C          0.6285343711       -0.7225662498        0.3152307651
 H         -0.0564324897       -0.0003509471        0.7440645820
 N          2.3831702857        0.9543658011        0.3280882824
 S          3.7487354441        1.1292148429        1.2925338325
 O          3.8929680437        0.0209926442        2.2080694966
 O          3.6261106072        2.4426722325        1.8868098209
 C          5.0976767651        1.1416520639        0.1310617830
 C          6.1204390373        0.2216435730        0.2536621819
 C          7.1655765181        0.2569103608       -0.6564558072
 C          7.1693090122        1.2065588422       -1.6666357277
 C          6.1353792373        2.1249363185       -1.7744230831
 C          5.0883451001        2.0960356058       -0.8672354985
 H          4.2684379775        2.7933706463       -0.9133458299
 H          6.1416430896        2.8619600878       -2.5612784057
 H          7.9827781249        1.2317876195       -2.3743992647
 H          7.9703195724       -0.4558450501       -0.5742876769
 H          6.0716686011       -0.5013279602        1.0522380454
 H          1.6492924913        1.5688476164        0.6501060070
 H          3.8389546281       -0.9874369403       -0.6938053181
 H          3.0556009123       -3.2805058718       -1.1764485322
 H          0.7328599821       -3.9234831884       -0.7206652242
 H         -1.3697570426       -2.3685949834        1.4460351606
 C         -1.7282833947       -3.6599578717       -0.2210818994
 C         -1.4922758887       -4.9329084189        0.5339095787
 C         -2.8761072539       -4.3677178084        0.4323186815
 H         -3.5967806100       -4.8705281150       -0.1948434708
 H         -3.3076075622       -3.9064466794        1.3088782227
 H         -1.2647861195       -5.8287607589       -0.0238921351
 H         -0.9860993508       -4.8639263452        1.4850278417
 H         -1.6751948284       -3.6855840442       -1.3036156289
