  62
        -98.94871052
 C          1.4693802129        1.3957578125       -0.3521861114
 C          0.3545195572        1.6763377568       -1.1762807090
 C         -0.6309784238        2.6113788375       -0.6242784592
 C         -0.4627912728        3.0996480432        0.6180023886
 C         -1.3594899496        4.0916718666        1.3086105443
 C         -2.5933282160        3.4649480507        1.9709780314
 C         -3.6903408566        3.0172169554        1.0049610650
 H         -4.5841797436        2.8274834645        1.6029036036
 H         -3.9241032282        3.8304962108        0.3167751364
 C         -3.3531030216        1.7465066887        0.2126304935
 H         -2.5388075677        1.2103272001        0.7083570576
 H         -4.2220744940        1.0829296896        0.2214143705
 C         -2.9826217286        1.9839237592       -1.2519086402
 H         -2.6986281846        1.0242576447       -1.6910730696
 H         -3.8543528451        2.3614218533       -1.7917767526
 C         -1.8212187098        2.9615854930       -1.4661404253
 H         -1.5136061002        2.8988800708       -2.5130842863
 H         -2.1444726592        3.9813278959       -1.2565928260
 H         -2.2714843643        2.6110859385        2.5727280476
 H         -3.0153214225        4.2115114539        2.6482466616
 H         -0.7551268528        4.5658626499        2.0850485566
 H         -1.6755112010        4.8568912696        0.5983919982
 O          0.5940124490        2.7599562259        1.4023050707
 C          1.5746031629        1.8917382512        0.9469371676
 O          2.4773737561        1.6595592855        1.7747477849
 O          0.1987117367        1.1800659117       -2.3251977464
 C          2.5469864782        0.4540924934       -0.8614309514
 C          2.5991669805       -0.7607759249        0.0303990297
 C          3.7638419877       -1.2662371343        0.5911776561
 C          3.7093316834       -2.3522757594        1.4485880081
 C          2.5029659850       -2.9470696104        1.7674602150
 C          1.3331158772       -2.4594333935        1.1934182970
 C          1.3944216605       -1.3928984791        0.3134423487
 H          0.4850957655       -1.0079205994       -0.1249272615
 N          0.0956289319       -3.0587703718        1.4634912662
 S         -1.3468443646       -2.2456991121        1.2724657151
 O         -1.2489864034       -0.8471617317        1.6249486725
 O         -2.2984986924       -3.0162345457        2.0470519712
 C         -1.7541356882       -2.4256660372       -0.4536578298
 C         -2.8803898010       -1.7621474097       -0.8983711677
 C         -3.2609564261       -1.8881558386       -2.2244848447
 C         -2.5115843107       -2.6775702266       -3.0825738758
 C         -1.3880997049       -3.3438177354       -2.6200753162
 C         -1.0033653890       -3.2227667136       -1.2934459578
 H         -0.1301979349       -3.7272419543       -0.9145174900
 H         -0.8055641215       -3.9571240683       -3.2887010652
 H         -2.8046494237       -2.7719082061       -4.1162172801
 H         -4.1357601497       -1.3686635790       -2.5818794365
 H         -3.4318593863       -1.1565836162       -0.1973445553
 H          0.0773020697       -3.7257105296        2.2193683192
 H          2.4603329065       -3.7771745753        2.4557502660
 H          4.6196199176       -2.7311174125        1.8880145747
 H          4.7110280086       -0.8011142368        0.3735338237
 H          2.2109703149        0.1379145714       -1.8601734002
 C          3.8720016912        1.1736207451       -0.9933974746
 C          4.8856983081        0.7084974600       -1.9947842957
 C          4.1369658442        1.9858011395       -2.2243999841
 H          4.6645987605        2.9218833970       -2.1197629400
 H          3.3677135286        2.0013166201       -2.9825579629
 H          5.9318710767        0.7690117941       -1.7356267735
 H          4.6296873230       -0.1443952934       -2.6046141980
 H          4.2260442330        1.5687184327       -0.0477712009
