  62
        -98.93952245
 C         -1.6747632156       -0.9510979344        0.1397951484
 C         -2.7682103165       -0.6606857658        0.9863161902
 C         -3.5303803219        0.5655128417        0.6893646583
 C         -3.1517737999        1.3443316741       -0.3413780171
 C         -3.7047744988        2.6579552819       -0.8543153449
 C         -5.0725704920        3.1611357797       -0.4004064987
 C         -6.2557928989        2.3243406823       -0.8861153442
 H         -7.1634924520        2.7144360795       -0.4205498833
 H         -6.3535556814        2.4560404965       -1.9666597491
 C         -6.1613968745        0.8254639993       -0.6119452201
 H         -7.0623039419        0.3548335011       -1.0148048827
 H         -5.3107814193        0.4061389098       -1.1530787603
 C         -6.0536236269        0.4354891396        0.8608625391
 H         -6.1535506709       -0.6516646440        0.9216477124
 H         -6.8799692078        0.8780668626        1.4204978353
 C         -4.7332688021        0.8175110102        1.5520072293
 H         -4.7511589043        1.8486696870        1.8973439386
 H         -4.6170883913        0.1798114249        2.4334994826
 H         -5.0967401480        3.2648921226        0.6804913120
 H         -5.1873196545        4.1660929724       -0.8159330332
 H         -2.9559210131        3.4163701123       -0.5990568597
 H         -3.6989680174        2.5764751827       -1.9459483260
 O         -2.0677768535        1.0380533249       -1.1135066543
 C         -1.3156697898       -0.1113321674       -0.9131842912
 O         -0.3755889070       -0.2521895311       -1.7145746375
 H          0.2280091265       -0.0191575513        1.4670226990
 C          0.9810322163       -0.7443358476        1.1834710802
 C          0.5888294846       -1.9391700751        0.5961029479
 C          1.5755394720       -2.8533415893        0.2435359524
 C          2.9113043868       -2.5754907956        0.4760940023
 C          3.2973483388       -1.3763808388        1.0459619000
 C          2.3206505274       -0.4503221501        1.3887465009
 N          2.7026497709        0.7932313795        1.9194367503
 S          3.9886778362        1.5815253376        1.1887326091
 O          5.2208882743        1.1478428886        1.8013846471
 O          3.6914216290        2.9917255444        1.3217603318
 C          3.9784216820        1.0908799187       -0.5281079822
 C          2.7982754050        1.1638142715       -1.2400680947
 C          2.7844939217        0.7519027136       -2.5623560362
 C          3.9506355326        0.2908477256       -3.1532675839
 C          5.1328638394        0.2391897483       -2.4307265866
 C          5.1482042645        0.6359033495       -1.1034545751
 H          6.0394921646        0.5936602236       -0.4985202091
 H          6.0386138788       -0.1182356102       -2.8935444610
 H          3.9342237800       -0.0328665911       -4.1820076316
 H          1.8522236470        0.7717450306       -3.1035569685
 H          1.8950255571        1.5169503250       -0.7682681818
 H          1.9313894052        1.4271625518        2.0682928187
 H          4.3332236260       -1.1402654616        1.2293549416
 H          3.6634700053       -3.2990616031        0.2025316830
 H          1.2959615651       -3.7873147149       -0.2154342500
 C         -0.8784965073       -2.2186762670        0.3772059701
 H         -1.2848125239       -2.6480071958        1.3060818430
 C         -1.1229141467       -3.1975395015       -0.7559138675
 C         -1.2065818802       -4.6706609855       -0.4929488401
 C         -2.4456220266       -3.8982659053       -0.8285803117
 H         -2.9023221906       -4.0424755922       -1.7962478474
 H         -3.1543118596       -3.6980440902       -0.0379337220
 H         -0.8127572272       -5.3496561301       -1.2342445384
 H         -1.0840955589       -5.0069965791        0.5256292072
 H         -0.6803542237       -2.8670933568       -1.6890212772
 O         -3.0930465659       -1.3914010859        1.9618938286
