  62
        -98.93851735
 C          2.3523110325        1.2250726917        0.2430836549
 C          2.4081091408       -0.0219906503       -0.4209704809
 C          3.4410028628       -0.9685475421        0.0422485150
 C          4.2543625903       -0.6226025145        1.0570743709
 C          5.3572132175       -1.3877008552        1.7587074770
 C          5.9494510390       -2.6515312954        1.1403275813
 C          6.7356497791       -2.4256483573       -0.1505310671
 H          7.6504588540       -1.8786127638        0.0907015917
 H          7.0260675430       -3.4007094133       -0.5477683214
 C          6.0052205521       -1.6434737166       -1.2391791767
 H          5.8028563097       -0.6291116016       -0.8894938443
 H          6.6766001177       -1.5597155003       -2.0980592040
 C          4.7003767962       -2.2682344879       -1.7296441013
 H          4.3747431919       -1.7033704931       -2.6073276178
 H          4.8802471482       -3.2982176275       -2.0437757894
 C          3.5398126774       -2.2591951578       -0.7188919326
 H          3.6012631240       -3.1034034608       -0.0361230664
 H          2.6036312729       -2.3598826572       -1.2763108084
 H          6.6415701296       -3.0633936760        1.8798794740
 H          5.1735624395       -3.3960952406        0.9879924200
 H          6.1596459323       -0.6624180674        1.9266842503
 H          4.9592119734       -1.6409721004        2.7476164921
 O          4.1423026799        0.5840086142        1.6862325221
 C          3.2062104867        1.5257826854        1.3052684402
 O          3.2346638214        2.5768219600        1.9756747581
 O          1.6391805165       -0.3477044196       -1.3643453176
 C          1.3318588487        2.2867355854       -0.1377065462
 C         -0.0365730692        1.7865934593        0.2558725386
 C         -0.4455294225        1.9072685211        1.5813353154
 C         -1.6661009490        1.4051850622        1.9907408729
 C         -2.5007902704        0.7642679734        1.0909281181
 C         -2.0931175589        0.6219180186       -0.2278898815
 C         -0.8751650943        1.1467304981       -0.6422713468
 H         -0.5657063632        1.0182992143       -1.6671020029
 N         -2.9268457096       -0.0318458430       -1.1496999119
 S         -3.6832607899       -1.4567524404       -0.6912812624
 O         -2.9184979279       -2.1851863154        0.2945181010
 O         -3.9620818541       -2.1502728471       -1.9300822637
 C         -5.2224824411       -0.9016762489        0.0145365940
 C         -5.6226396771       -1.3693112358        1.2508409330
 C         -6.8297300259       -0.9325910865        1.7746081921
 C         -7.6117698900       -0.0415098267        1.0560892187
 C         -7.1971637910        0.4165099211       -0.1857080586
 C         -5.9925742084       -0.0173593711       -0.7154159618
 H         -5.6361021743        0.3129274412       -1.6766377664
 H         -7.8077600533        1.1096621964       -0.7415601007
 H         -8.5496070331        0.2980571397        1.4664812213
 H         -7.1534426756       -1.2880729023        2.7396947774
 H         -4.9787552297       -2.0560776623        1.7772399588
 H         -2.5164898171       -0.1233814334       -2.0680630843
 H         -3.4483380147        0.3593806576        1.4065523125
 H         -1.9719143588        1.5101026412        3.0206625781
 H          0.2160520753        2.3890816828        2.2881822243
 H          1.5647519645        3.1607612955        0.4848899017
 C          1.4468269564        2.6833544898       -1.5946814194
 C          0.7780868471        3.9382048438       -2.0670652373
 C          2.2718093160        3.8777830772       -1.9639538404
 H          2.8519487982        3.8408344209       -2.8738975947
 H          2.7524784601        4.4199334474       -1.1626408118
 H          0.3306785126        3.9467764600       -3.0492087975
 H          0.2428356439        4.5219401448       -1.3336483550
 H          1.4763690941        1.8377623763       -2.2703763617
