  62
        -98.94753136
 C          1.3353547455       -1.6289976889        0.5008061307
 C          1.1901230801       -0.3182566473        1.0206532173
 C          2.3737048463        0.5501318328        0.9131020313
 C          3.5037361673        0.0742403310        0.3623273614
 C          4.7691515490        0.8580769677        0.1687546328
 C          4.8103481554        1.5267367774       -1.2115618899
 C          3.5404363887        2.3034267893       -1.5599681648
 H          2.7064912988        1.6060644024       -1.6753567210
 H          3.7002517209        2.7702303286       -2.5347126535
 C          3.1527540788        3.3787378109       -0.5359850784
 H          2.8709282050        4.2861635963       -1.0746456354
 H          4.0117706980        3.6250747290        0.0899779543
 C          1.9636939304        3.0006760546        0.3497197101
 H          1.1495311689        2.6349333105       -0.2826437334
 H          1.6163637417        3.9082244867        0.8527781090
 C          2.2447278643        1.9531476152        1.4354011287
 H          1.3889251770        1.9404177504        2.1167155272
 H          3.1339133096        2.2388890171        2.0018552865
 H          4.9558215941        0.7526347481       -1.9685680201
 H          5.6695254788        2.1995531441       -1.2437261373
 H          4.8462144798        1.6108551158        0.9508051884
 H          5.6128769463        0.1707901505        0.2537190971
 O          3.6115912039       -1.1910483680       -0.1172428185
 C          2.5335890419       -2.0571517504       -0.0788581498
 O          2.7671901126       -3.1793620933       -0.5738567110
 H         -1.2525393937       -0.4615257791       -0.0140011626
 C         -1.3944533311       -1.2156026498       -0.7695583193
 C         -0.7136060410       -2.4197404018       -0.6676839552
 C         -0.8983879607       -3.3781386608       -1.6572158493
 C         -1.7386560792       -3.1273434642       -2.7279120269
 C         -2.3957181218       -1.9149487510       -2.8397261905
 C         -2.2150459660       -0.9503773900       -1.8547770013
 N         -2.8693350789        0.2877753241       -1.9180747972
 S         -2.1036933444        1.6620846285       -1.3396079614
 O         -2.8012485122        2.7563875061       -1.9881765890
 O         -0.6791252922        1.6164279086       -1.5773521004
 C         -2.4798248838        1.7220867382        0.3995370265
 C         -3.4969090906        0.9496810756        0.9214690397
 C         -3.7855419130        1.0510266112        2.2730440895
 C         -3.0624112320        1.9207269736        3.0735942276
 C         -2.0505201032        2.6959890935        2.5310139232
 C         -1.7563698000        2.5986613907        1.1811608521
 H         -0.9693728607        3.1763383305        0.7243892041
 H         -1.4842531570        3.3699193038        3.1540702123
 H         -3.2843928603        1.9913996154        4.1269938940
 H         -4.5697002061        0.4447771133        2.6979106727
 H         -4.0344635469        0.2723779494        0.2785381504
 H         -3.3827045692        0.4689467666       -2.7678344942
 H         -3.0382232737       -1.7127215550       -3.6832748288
 H         -1.8738372427       -3.8787230209       -3.4912749772
 H         -0.3641661032       -4.3149007067       -1.5928097115
 C          0.2171285456       -2.6622130861        0.4959576778
 H          0.7092889613       -3.6312856133        0.3363415307
 C         -0.5547425877       -2.7241973312        1.7999945348
 C         -1.3125228394       -3.9721702508        2.1352506205
 C         -0.0697180857       -3.6218968210        2.8963245386
 H         -0.1638452467       -3.2839778018        3.9172119737
 H          0.8236330123       -4.2005526717        2.7096283651
 H         -1.2621467174       -4.7923980945        1.4351359221
 H         -2.2643736221       -3.8770079745        2.6342971437
 H         -0.9878865726       -1.7757382952        2.0879633012
 O          0.1450412017        0.1258511184        1.5654311252
