  62
        -98.93443332
 C          2.4470365961        1.4757815113        0.2716571420
 C          2.7332339952        0.5962136257       -0.7973020527
 C          3.6536039896       -0.5269945843       -0.5121042859
 C          4.1477020676       -0.6695366032        0.7308646857
 C          5.0564423121       -1.7457883702        1.2631974268
 C          4.3234955182       -3.0738758423        1.5084193374
 C          3.3816956989       -3.5034485183        0.3866851351
 H          2.6258961287       -2.7296387699        0.2355923330
 H          2.8552537794       -4.4019028502        0.7202771449
 C          4.0587427863       -3.8247930404       -0.9438764743
 H          3.2859547757       -4.2120763973       -1.6131660472
 H          4.7917971249       -4.6194899303       -0.7890326686
 C          4.7499475442       -2.6531163834       -1.6453833724
 H          4.9504613624       -2.9643970524       -2.6747138173
 H          5.7149604201       -2.4375238109       -1.1949464197
 C          3.9127608698       -1.3810824907       -1.7304875518
 H          2.9275596006       -1.6295841236       -2.1423332106
 H          4.3707119159       -0.7101820472       -2.4673571238
 H          3.7284332363       -2.9695877248        2.4191353649
 H          5.0686540030       -3.8527188019        1.6789714165
 H          5.9008908350       -1.8878524714        0.5954944423
 H          5.4436342480       -1.3822272059        2.2176069492
 O          3.8273679473        0.1921634458        1.7384337006
 C          2.9863273656        1.2669131512        1.5439337376
 O          2.8007591561        1.9651571794        2.5608532280
 H          0.1503614689        0.8242860283       -1.2292422878
 C         -0.4539479358        1.2728120098       -0.4539528523
 C          0.0974461340        2.2693667215        0.3407002897
 C         -0.6873961948        2.8340627926        1.3382676026
 C         -1.9911516313        2.4101344941        1.5315127235
 C         -2.5366449351        1.4182406033        0.7362868859
 C         -1.7577252361        0.8437096155       -0.2598940842
 N         -2.3016810052       -0.1706879221       -1.0727141290
 S         -2.8975050684       -1.5273447741       -0.2773893687
 O         -2.2268618443       -1.7354582290        0.9861369959
 O         -2.8112704284       -2.6059620821       -1.2376732066
 C         -4.6114337951       -1.1295898524       -0.0053135743
 C         -5.1341775849       -1.1643038248        1.2724179126
 C         -6.4728971913       -0.8543812812        1.4569179177
 C         -7.2601021967       -0.5180420642        0.3662876552
 C         -6.7199388177       -0.4900098805       -0.9110525611
 C         -5.3829865362       -0.7995426566       -1.1025288411
 H         -4.9241796768       -0.7925046175       -2.0771229906
 H         -7.3352523921       -0.2276260392       -1.7564891713
 H         -8.3008820114       -0.2760188841        0.5127678609
 H         -6.8943815978       -0.8756556631        2.4490927335
 H         -4.4813900601       -1.4249786754        2.0903137324
 H         -1.6763345535       -0.4530087162       -1.8151504481
 H         -3.5497186533        1.0814432791        0.8849678596
 H         -2.5887243552        2.8555753874        2.3120942278
 H         -0.2623933642        3.5951610297        1.9762566197
 C          1.5324224812        2.6851745999        0.1431801524
 H          1.8074133603        3.3371310222        0.9868426106
 C          1.7687926883        3.4742423721       -1.1386518170
 C          0.7384360717        3.6540566087       -2.2095743491
 C          1.1003415713        4.8047910782       -1.3230137022
 H          1.6741587600        5.6210740240       -1.7346261611
 H          0.3805469557        5.1019452449       -0.5750835451
 H         -0.2279461389        3.1942272665       -2.0759914110
 H          1.0805998626        3.6568265463       -3.2333573323
 H          2.7975396295        3.3986611541       -1.4752819058
 O          2.2517728372        0.7124014614       -1.9558321683
