  62
        -98.94496068
 C         -2.0463644701       -1.3326422004        0.0192181014
 C         -2.6226700300       -0.6642734395        1.1255226808
 C         -3.7951908502        0.1667666601        0.8324519202
 C         -4.2560100703        0.2488816389       -0.4292823898
 C         -5.4592451805        1.0311481083       -0.8816908304
 C         -5.1741746607        2.5135483981       -1.1590865218
 C         -4.9372422906        3.3737059993        0.0828659074
 H         -4.9632131508        4.4165073090       -0.2395082536
 H         -5.7585935205        3.2297345999        0.7855309976
 C         -3.6003385305        3.1093045001        0.7895810675
 H         -2.9323887905        2.5704786895        0.1127915779
 H         -3.1169884006        4.0609062404        1.0232475465
 C         -3.7202856702        2.3271925313        2.0978643882
 H         -4.2796740702        2.9178617119        2.8265767777
 H         -2.7147317102        2.1681149318        2.4962322382
 C         -4.3967979601        0.9571532211        1.9552603995
 H         -4.2358953199        0.3977546419        2.8800617200
 H         -5.4685862601        1.0813399308        1.8032454796
 H         -4.3091118807        2.5852367076       -1.8227132220
 H         -6.0369742108        2.9167436475       -1.6941762921
 H         -5.7993777605        0.5674503875       -1.8101026599
 H         -6.2527544304        0.9449760289       -0.1388775102
 O         -3.6711259404       -0.4059754620       -1.4667936893
 C         -2.5395875403       -1.1884612617       -1.2778272787
 O         -2.0855992503       -1.6921380126       -2.3217774183
 H         -0.0034607002        0.3195554201        0.3514346396
 C          0.6388517498       -0.2632958004       -0.2973194099
 C          0.3650317199       -1.6138553406       -0.4813785787
 C          1.2074609099       -2.3530291613       -1.3003801381
 C          2.2723200397       -1.7438377918       -1.9431429788
 C          2.5272466896       -0.3958424116       -1.7758653700
 C          1.7034239896        0.3486269991       -0.9398369106
 N          1.9638092395        1.7151099893       -0.7447132519
 S          3.5496822595        2.1889408097       -0.5020721125
 O          3.4653698394        3.4069121704        0.2729885963
 O          4.2236768093        2.2974890786       -1.7718913527
 C          4.2876616197        0.8818680507        0.4628457986
 C          5.3650951097        0.1793262003       -0.0366709109
 C          5.9014084399       -0.8515091689        0.7184012200
 C          5.3508669401       -1.1626324978        1.9517456803
 C          4.2703036101       -0.4449584875        2.4417251898
 C          3.7316524999        0.5879444617        1.6922209489
 H          2.8941405699        1.1667653620        2.0481917785
 H          3.8425849902       -0.6875914467        3.4013266301
 H          5.7654441503       -1.9683561873        2.5366857810
 H          6.7425574600       -1.4100761192        0.3408994804
 H          5.7593596496        0.4522924095       -1.0018961212
 H          1.3394754695        2.1649612798       -0.0922285623
 H          3.3401741595        0.0952705880       -2.2854707806
 H          2.9109114997       -2.3277624223       -2.5879648783
 H          1.0250571400       -3.4046476115       -1.4460086571
 C         -0.8208928800       -2.1996172301        0.2453689420
 H         -0.6195455198       -2.1381970691        1.3254389619
 C         -1.1088078899       -3.6413317305       -0.1138365466
 C         -0.3698135896       -4.7503148997        0.5717417143
 C         -1.8146803196       -4.5070288196        0.8850032343
 H         -2.5491769396       -5.2128126900        0.5271275550
 H         -2.0661151296       -4.0627031588        1.8371084139
 H         -0.1121306096       -5.6289564502        0.0000523451
 H          0.3619558804       -4.4772333490        1.3166566140
 H         -1.3729842500       -3.7664915315       -1.1576529065
 O         -2.1751085099       -0.7547087584        2.3010032109
