  62
        -98.93555116
 C         -1.7295007244       -1.0764149165        0.5564289994
 C         -2.1153064121        0.0439734910       -0.2131419958
 C         -3.5667293290        0.2556380903       -0.3865518161
 C         -4.4265233058       -0.6222807299        0.1608083259
 C         -5.9341796270       -0.6175361470        0.1259733085
 C         -6.5925547608       -0.2936576167       -1.2238737791
 C         -7.2804955752        1.0722790034       -1.2529666038
 H         -7.7789489714        1.2309522439       -0.2944453291
 H         -8.0541719370        1.0577078654       -2.0238663871
 C         -6.3608697737        2.2567080068       -1.5453022979
 H         -6.9410527408        3.1705805120       -1.3969767272
 H         -6.0597617532        2.2305705182       -2.5948659196
 C         -5.0982446300        2.3328231071       -0.6843868771
 H         -5.3241661149        2.0743078704        0.3495282507
 H         -4.7551364592        3.3697412395       -0.6851619614
 C         -3.9455134621        1.4603698530       -1.2039444842
 H         -3.0281479197        2.0558314277       -1.2562490253
 H         -4.1526879148        1.1408337281       -2.2295460248
 H         -7.3499516680       -1.0554064454       -1.4156685048
 H         -5.8554567914       -0.3638278536       -2.0222089618
 H         -6.2270492175       -1.6185240163        0.4507557760
 H         -6.2957479575        0.0751473369        0.8900555278
 O         -4.0049571434       -1.6931497464        0.8936363583
 C         -2.6644092366       -1.9447849447        1.1169613766
 O         -2.4362419419       -2.9506568586        1.8186681429
 H          2.1327007074       -0.1610150093        0.1178773000
 C          1.6451886339        0.3006740048        0.9598913796
 C          0.4257157891       -0.1784275089        1.4129819329
 C         -0.1708115461        0.4439289064        2.5068793994
 C          0.4254261547        1.5320924411        3.1125611253
 C          1.6315876296        2.0216088833        2.6428851426
 C          2.2437030297        1.4001292711        1.5616171183
 N          3.4913659341        1.8435883877        1.1041531313
 S          3.9202525542        1.7732043740       -0.5096162324
 O          5.0525134315        2.6714840299       -0.6088929649
 O          2.8123914350        2.0562261121       -1.3901725233
 C          4.4979903945        0.1062604464       -0.7506483681
 C          4.2068383502       -0.5371309618       -1.9369762802
 C          4.7018497871       -1.8150895625       -2.1469390862
 C          5.4749024964       -2.4245413116       -1.1706337780
 C          5.7576740986       -1.7645930394        0.0156245966
 C          5.2707775790       -0.4849961896        0.2292717145
 H          5.4729362548        0.0577881083        1.1372432551
 H          6.3571002982       -2.2429842745        0.7732617887
 H          5.8561233534       -3.4198332505       -1.3357920004
 H          4.4822854197       -2.3287355628       -3.0697642697
 H          3.5899961033       -0.0310055680       -2.6629669792
 H          3.8376749667        2.6814019301        1.5479090361
 H          2.0954392737        2.8773892644        3.1094337178
 H         -0.0542988296        2.0088372339        3.9542713865
 H         -1.1168604171        0.0650225912        2.8698946521
 C         -0.2592584644       -1.3705775662        0.7912015968
 H         -0.2315546903       -2.1953155364        1.5189974734
 C          0.3918540828       -1.8389060187       -0.4936924473
 C          1.5283011343       -2.8144939410       -0.4467796417
 C          0.1809842394       -3.2560886251       -0.9316270435
 H          0.0488500362       -3.4558595111       -1.9843381631
 H         -0.4167145140       -3.8864954277       -0.2891523742
 H          1.8523430587       -3.1546981676        0.5249752809
 H          2.3261321485       -2.7125359120       -1.1666292522
 H          0.4009813133       -1.0717773730       -1.2605589724
 O         -1.2893291106        0.8412050066       -0.7315440989
