  62
        -98.93963049
 C         -2.6337269338       -1.2031140290        0.2889128936
 C         -2.5342397978       -0.1786422804       -0.6854474113
 C         -3.7338528989        0.6547703521       -0.8563451231
 C         -4.8353265146        0.4123864772       -0.1247437371
 C         -6.1397495191        1.1573503014       -0.2090604035
 C         -6.1755843312        2.4473918033        0.6217215640
 C         -5.3444309110        3.6036745672        0.0641971796
 H         -5.6088296290        3.7687290431       -0.9807547271
 H         -5.6312747041        4.4997826658        0.6180950444
 C         -3.8264445918        3.4111417862        0.1892718091
 H         -3.6171695504        2.6262329575        0.9198744741
 H         -3.3729794177        4.3293346592        0.5692227999
 C         -3.1198921734        3.0666636160       -1.1219617755
 H         -3.2059225970        3.9058205683       -1.8158402071
 H         -2.0590455975        2.9112352443       -0.9090371797
 C         -3.6525541046        1.8051128841       -1.8137442749
 H         -4.6280951302        2.0016862810       -2.2580209190
 H         -2.9539868542        1.5291363716       -2.6074589212
 H         -5.8452283898        2.2177041331        1.6374404262
 H         -7.2178022193        2.7702643749        0.6766460170
 H         -6.3641588538        1.3873693186       -1.2509890073
 H         -6.9087391064        0.4815324720        0.1714867908
 O         -4.8925097956       -0.5850134484        0.7980172691
 C         -3.7920068019       -1.3875060830        1.0494145269
 O         -3.9672239277       -2.2200312238        1.9618456939
 H          0.7660525110       -2.0356939609       -1.0049978765
 C          0.8469991126       -1.3909897253       -0.1434638812
 C         -0.2012457869       -1.3121514225        0.7587428248
 C         -0.0798694731       -0.4497197093        1.8447253436
 C          1.0581583669        0.3143641120        2.0179869101
 C          2.1002266034        0.2370944891        1.1105332692
 C          1.9886073598       -0.6174613626        0.0230021548
 N          3.0360624698       -0.6845818002       -0.9115388812
 S          4.5912214331       -0.9544437581       -0.3473453648
 O          5.3003474042       -1.5531188518       -1.4575220676
 O          4.5818246816       -1.7059827635        0.8868855070
 C          5.2399797644        0.6787842948       -0.0614261208
 C          5.7707043139        1.0017538319        1.1719577337
 C          6.2853110499        2.2739905634        1.3679070086
 C          6.2607614461        3.1952465179        0.3321405885
 C          5.7253522860        2.8545678524       -0.9012549841
 C          5.2107072870        1.5841207349       -1.1040536029
 H          4.7885181593        1.2800484170       -2.0473578880
 H          5.7068946628        3.5742195149       -1.7038608860
 H          6.6610549635        4.1847933188        0.4868513676
 H          6.7019192926        2.5408063576        2.3259258938
 H          5.7632501799        0.2546466092        1.9496187906
 H          2.8316494751       -1.2643036327       -1.7123298315
 H          2.9896871909        0.8330301161        1.2357416620
 H          1.1351286674        0.9790290508        2.8652288320
 H         -0.8971325344       -0.3839258138        2.5508010490
 C         -1.4665841705       -2.1207501962        0.6133367688
 H         -1.7068493377       -2.5447672362        1.6022820278
 C         -1.3170922066       -3.3023847502       -0.3336098290
 C         -2.5229132338       -3.9547210536       -0.9393556972
 C         -1.5647895820       -3.1986132512       -1.8074848718
 H         -0.9265865644       -3.7618395122       -2.4734936326
 H         -1.8680784557       -2.2411547061       -2.2000439529
 H         -2.5439417164       -5.0319409472       -1.0085943874
 H         -3.4860669582       -3.5117075402       -0.7312418646
 H         -0.5177168894       -3.9680541066       -0.0198831291
 O         -1.5144861985        0.0385410803       -1.3878849721
