  62
        -98.94306626
 C          2.6844429866        1.1991394254        0.1289371554
 C          2.7054758250        0.1942930558       -0.8679660759
 C          3.9073071498       -0.6487481412       -0.8922453166
 C          4.9081314729       -0.4143268201       -0.0240835485
 C          6.2054607290       -1.1723627675        0.0569057766
 C          6.1234224280       -2.4634937101        0.8828633609
 C          5.3596996644       -3.6117376040        0.2219122544
 H          5.7534791343       -3.7784729660       -0.7811501363
 H          5.5655089962       -4.5108338426        0.8061723997
 C          3.8400337363       -3.4050634493        0.1531134382
 H          3.5468917676       -2.6177860557        0.8515153287
 H          3.3332131547       -4.3187041338        0.4716286587
 C          3.3094246385       -3.0542442644       -1.2370234199
 H          2.2317002849       -2.8884376493       -1.1602654166
 H          3.4747694939       -3.8944281682       -1.9150832793
 C          3.9380944984       -1.7979126962       -1.8538346720
 H          4.9600549866       -2.0041152265       -2.1710744616
 H          3.3486894390       -1.5139539646       -2.7290291340
 H          5.6686723971       -2.2317090594        1.8488024747
 H          7.1472054648       -2.7960221908        1.0692878104
 H          6.9262743181       -0.5044292853        0.5334780245
 H          6.5581641501       -1.4037049323       -0.9485136698
 O          4.8606904865        0.5843575784        0.8983355992
 C          3.7433149446        1.3953627318        1.0145543160
 O          3.8134254706        2.2417849694        1.9292824122
 O          1.7747940175        0.0110748544       -1.6945015593
 C          1.4737876606        2.1050914900        0.2589893389
 C          0.2307580401        1.2754413197        0.4729770438
 C          0.2373498705        0.3030050502        1.4699745084
 C         -0.8777646253       -0.4768662172        1.7052631030
 C         -2.0280428355       -0.3043817522        0.9545231103
 C         -2.0524288348        0.6722174983       -0.0302244433
 C         -0.9290430235        1.4578647354       -0.2622313575
 H         -0.9650373944        2.2107824364       -1.0341774936
 N         -3.2117590523        0.8509184685       -0.8003508152
 S         -4.7044955088        0.9066580892       -0.0413180220
 O         -5.5572447248        1.6455523216       -0.9466417998
 O         -4.5962799155        1.4231329021        1.3033513316
 C         -5.2344506044       -0.7927138212       -0.0040034904
 C         -5.6160697652       -1.3685270647        1.1918743972
 C         -6.0364182004       -2.6895003337        1.1960011202
 C         -6.0686246628       -3.4069445278        0.0101232909
 C         -5.6848841572       -2.8130561663       -1.1831309042
 C         -5.2645172641       -1.4927629910       -1.1941109504
 H         -4.9609813314       -0.9956705223       -2.1003144362
 H         -5.7109895384       -3.3743604093       -2.1032650502
 H         -6.3949935759       -4.4349760530        0.0156853074
 H         -6.3355538918       -3.1528299014        2.1224866018
 H         -5.5699174581       -0.7738928870        2.0904800281
 H         -3.1315278836        1.5636461338       -1.5105905253
 H         -2.8997916567       -0.9130323725        1.1301598683
 H         -0.8524592970       -1.2302806442        2.4781507064
 H          1.1360097845        0.1660743026        2.0568791010
 H          1.6385517637        2.7081652255        1.1641315826
 C          1.3932895793        3.0337478357       -0.9348605100
 C          0.7420154803        4.3772519119       -0.8054781758
 C          2.2310431928        4.2754842162       -0.9410472053
 H          2.6878452171        4.5853722464       -1.8689342178
 H          2.8409595411        4.4652174959       -0.0696895600
 H          0.1784692797        4.7624525164       -1.6423472570
 H          0.3376426092        4.6469256141        0.1587393463
 H          1.2868718848        2.4987347466       -1.8718276702
