  62
        -98.93668625
 C         -2.0953401088       -1.2798570150       -0.1598515460
 C         -2.5534767346       -0.1440068653       -0.8682409766
 C         -3.9468352418        0.2559069993       -0.6113460422
 C         -4.6911623871       -0.4663365492        0.2456771572
 C         -6.0949612246       -0.1408714972        0.6704338672
 C         -6.0789053108        0.9993017639        1.7086532565
 C         -6.7361710101        2.2947459568        1.2322963401
 H         -7.8210825160        2.1726397808        1.2574093686
 H         -6.4759074851        3.0763667482        1.9492529753
 C         -6.3499449322        2.7607344781       -0.1748285195
 H         -6.6737701391        3.7997803244       -0.2656651156
 H         -6.9138641002        2.1937929574       -0.9170842614
 C         -4.8582055298        2.6781129135       -0.5239888316
 H         -4.5973950613        3.5614075420       -1.1107395903
 H         -4.2480651461        2.7076209069        0.3791772485
 C         -4.4636402189        1.4498057335       -1.3653151070
 H         -5.3083701033        1.1498930538       -1.9918510570
 H         -3.6440108656        1.7336788709       -2.0323022877
 H         -5.0407694483        1.1972102046        1.9839171498
 H         -6.5873259161        0.6720554585        2.6168407075
 H         -6.6866612791        0.1398420095       -0.1979666589
 H         -6.5206138271       -1.0450701173        1.1059849711
 O         -4.2153103221       -1.5572426526        0.9007900349
 C         -2.9109856982       -1.9868604079        0.7231985403
 O         -2.6015567589       -2.9905046693        1.3961423700
 H          1.3194096638       -0.5257689008       -1.8152795950
 C          1.2402306879       -0.1506125291       -0.8073198007
 C          0.2894294312       -0.6719289755        0.0545105523
 C          0.2170435176       -0.1651793251        1.3499103891
 C          1.0579094303        0.8504416133        1.7615523257
 C          1.9925840744        1.3839718717        0.8909409454
 C          2.0797031594        0.8793661815       -0.3989087353
 N          3.0314120280        1.4090666882       -1.2841278478
 S          4.5776798932        1.6912000678       -0.7163098985
 O          4.6156568274        2.9359812466        0.0100577505
 O          5.4281230675        1.6160324744       -1.8833549704
 C          4.9168626877        0.3344948720        0.3926669635
 C          4.8786499814       -0.9482826070       -0.1175075481
 C          5.1086435555       -2.0156571600        0.7347187877
 C          5.3712598207       -1.7837962690        2.0764300534
 C          5.4110919182       -0.4901759497        2.5722329952
 C          5.1799354658        0.5814069910        1.7243701220
 H          5.1991615810        1.6024911420        2.0690867102
 H          5.6175895575       -0.3127965484        3.6154202355
 H          5.5464280532       -2.6172045786        2.7383327525
 H          5.0797036007       -3.0230433981        0.3515055774
 H          4.6787045273       -1.0953205946       -1.1665801096
 H          3.0367574607        0.9789175968       -2.1967123395
 H          2.6428751643        2.1907480810        1.1875955779
 H          0.9839868764        1.2356994220        2.7672494869
 H         -0.5183021094       -0.5776068586        2.0277488531
 C         -0.6684967791       -1.7681520351       -0.3430347579
 H         -0.5426789708       -2.6016397143        0.3624215295
 C         -0.4652886687       -2.2875820896       -1.7505177858
 C          0.6107824807       -3.2926574435       -2.0293089057
 C         -0.8289260508       -3.7080391865       -2.0567225058
 H         -1.2859171970       -3.9286948225       -3.0098046864
 H         -1.2067631421       -4.3099817771       -1.2430946660
 H          1.1429904916       -3.2349553633       -2.9669739743
 H          1.2145014019       -3.6197024284       -1.1965519108
 H         -0.6849014332       -1.5442980722       -2.5083061585
 O         -1.8397886971        0.5034718142       -1.6785922034
