  62
        -98.94417384
 C         -1.8536338400       -0.8448565094       -0.4854688895
 C         -2.9959932199       -1.3656715395        0.1734866405
 C         -4.2710321300       -0.7081205095       -0.1296651592
 C         -4.3016086901        0.3152676307       -1.0023196790
 C         -5.5267421602        1.0739391207       -1.4353206487
 C         -5.9273550501        2.2066649505       -0.4803891684
 C         -6.5380451599        1.7522006403        0.8458615616
 H         -6.9678550899        2.6368771102        1.3198885918
 H         -7.3561229899        1.0587655603        0.6484696516
 C         -5.5374908597        1.1091147301        1.8164090014
 H         -4.5193364398        1.3617978202        1.5106931613
 H         -5.6826545196        1.5243126799        2.8162722314
 C         -5.6562151097       -0.4104030399        1.9356400211
 H         -6.6262874596       -0.6693590800        2.3655476712
 H         -4.8795902096       -0.7610165500        2.6198973509
 C         -5.4933726499       -1.1637221997        0.6087887909
 H         -5.3716138298       -2.2266963497        0.8303781007
 H         -6.3815944699       -1.0343476296       -0.0090953389
 H         -5.0480432601        2.8250003005       -0.2847357084
 H         -6.6606727402        2.8274603206       -1.0004239482
 H         -5.2932248903        1.5104793309       -2.4088715286
 H         -6.3624669902        0.3839718607       -1.5550840987
 O         -3.1860234202        0.7785338208       -1.6245560190
 C         -1.9339533202        0.2333113608       -1.3670341593
 O         -1.0081467603        0.7882628809       -1.9882295693
 H          1.4168379599        0.3731992708       -0.9324399297
 C          1.2246053000        0.3586111006        0.1267763603
 C          0.2911602801       -0.5142436195        0.6648597402
 C          0.0308205903       -0.4569566498        2.0327187803
 C          0.6858011004        0.4524315001        2.8397309704
 C          1.6229057103        1.3167157002        2.3008834904
 C          1.8863498901        1.2734371205        0.9367864304
 N          2.8114752500        2.1640230406        0.3704696904
 S          3.9279558799        1.6586664808       -0.7637648398
 O          4.8929467498        2.7357316209       -0.8143869398
 O          3.2833538697        1.3199888811       -2.0056694698
 C          4.6784953000        0.2122068207       -0.0394973902
 C          4.1803267100       -1.0375417392       -0.3458215504
 C          4.7363407901       -2.1484855593        0.2688422993
 C          5.7744559402       -1.9911549595        1.1737906692
 C          6.2660051302       -0.7282690495        1.4688347294
 C          5.7115002901        0.3862531006        0.8612515797
 H          6.0705938401        1.3843917605        1.0529257098
 H          7.0766583703       -0.6096927697        2.1695664393
 H          6.2045108003       -2.8586557996        1.6489872490
 H          4.3543100701       -3.1299536393        0.0375040092
 H          3.3752875899       -1.1205249691       -1.0566013903
 H          3.2392327601        2.7961400105        1.0312729005
 H          2.1357816204        2.0308463701        2.9271697805
 H          0.4706993906        0.4872608199        3.8969434104
 H         -0.7081833096       -1.1268835799        2.4494345303
 C         -0.5058246000       -1.4792430694       -0.1774246698
 H         -0.7417714599       -2.3536583595        0.4450071600
 C          0.1991249199       -1.9600537691       -1.4269733600
 C          1.2126943699       -3.0588829391       -1.3201653804
 C         -0.1227081702       -3.3297657090       -1.9436634102
 H         -0.1747892403       -3.4781946888       -3.0119099503
 H         -0.8393716601       -3.9157133192       -1.3867719103
 H          2.0769984298       -3.0284804890       -1.9664596405
 H          1.4043299601       -3.4650136393       -0.3385057405
 H          0.3644987598       -1.1818456790       -2.1622225199
 O         -2.9515672698       -2.3379472097        0.9732870403
