  62
        -98.93800254
 C         -2.4275016813       -0.4049100573        0.4708511893
 C         -3.2227329677       -0.3605586297       -0.7014602880
 C         -4.3144945490        0.6256204008       -0.6899108687
 C         -4.4751435404        1.4458913992        0.3628457120
 C         -5.5202155309        2.5194335832        0.5014455502
 C         -6.8766114848        2.0086714270        1.0065247311
 C         -7.6837479153        1.1952445710       -0.0061448485
 H         -8.6920294843        1.0891100037        0.3991362225
 H         -7.7650749682        1.7552914824       -0.9382235027
 C         -7.1172038106       -0.2027562227       -0.2909937451
 H         -6.4146560969       -0.4787113939        0.4989355611
 H         -7.9271711363       -0.9354219488       -0.2682370467
 C         -6.4194240991       -0.3402714832       -1.6442801160
 H         -7.1459351635       -0.1960063809       -2.4470081897
 H         -6.0260501896       -1.3568254034       -1.7253143429
 C         -5.2556225490        0.6366332435       -1.8568135631
 H         -4.6953926402        0.3157644055       -2.7383338188
 H         -5.6360157229        1.6428946278       -2.0302882222
 H         -7.4676158977        2.8819366530        1.2921195808
 H         -6.7118073051        1.4108786314        1.9060505934
 H         -5.6540329553        3.0266842277       -0.4543993345
 H         -5.1316607153        3.2385776071        1.2257384322
 O         -3.6617238010        1.4016144796        1.4522062421
 C         -2.6434636618        0.4690421414        1.5399137768
 O         -2.0029888378        0.5123178764        2.6107209986
 O         -3.0491190735       -1.0881923182       -1.7110486678
 C         -1.2820615563       -1.3857555853        0.6621484088
 C          0.0015288830       -0.8174216567        0.1142065657
 C          0.0907758564       -0.3667392706       -1.1993481054
 C          1.2805315199        0.1452492553       -1.6836491111
 C          2.3992306844        0.2255389635       -0.8723182991
 C          2.3197011577       -0.2160208648        0.4411201772
 C          1.1250662931       -0.7362518321        0.9232586609
 H          1.0640475532       -1.0692694508        1.9510481397
 N          3.4470621286       -0.1195536514        1.2736542018
 S          4.9061163878       -0.7344034854        0.7150351048
 O          4.6960989665       -1.8176806484       -0.2169266717
 O          5.6636664058       -1.0478702100        1.9066799677
 C          5.6682414529        0.6463092976       -0.1103586950
 C          5.8431200424        1.8162485069        0.6026233361
 C          6.4465804418        2.8960076704       -0.0218954432
 C          6.8652837901        2.7872882526       -1.3398329934
 C          6.6852130465        1.6047646875       -2.0408581849
 C          6.0811434490        0.5210792734       -1.4223076745
 H          5.9160863260       -0.4163077320       -1.9294037728
 H          7.0115418392        1.5223649384       -3.0651736430
 H          7.3345453737        3.6295133835       -1.8234128719
 H          6.5880025330        3.8174895095        0.5196432084
 H          5.5073377807        1.8591482416        1.6253698544
 H          3.2770508231       -0.4039038957        2.2274892712
 H          3.3272421566        0.6261677049       -1.2463369175
 H          1.3376851275        0.4888192208       -2.7054114193
 H         -0.7804790520       -0.4283884067       -1.8336228557
 H         -1.1626849750       -1.4740131670        1.7539666727
 C         -1.5952747263       -2.7795005372        0.1337926131
 C         -0.9125734635       -3.4042821698       -1.0416943796
 C         -0.6106062259       -3.8927379637        0.3410495115
 H         -0.9770123743       -4.8615436185        0.6452953120
 H          0.3513096170       -3.6336751153        0.7594581618
 H         -1.5107773280       -4.0217180453       -1.6941602000
 H         -0.1519967042       -2.8390269933       -1.5564242183
 H         -2.6425305330       -3.0323865523        0.2651249523
