  62
        -98.93825303
 C         -0.9363651304       -1.7037170731        0.1272830756
 C         -1.5666230118       -0.8133399301        1.0308436114
 C         -2.5387620064        0.1432177089        0.4734971284
 C         -2.7625779142        0.1484036503       -0.8537412201
 C         -3.6141677372        1.0542205875       -1.7188215498
 C         -4.6418062695        1.9917934552       -1.0909228758
 C         -5.8391057543        1.2864199274       -0.4541427325
 H         -6.4481360412        0.8515388746       -1.2506355588
 H         -6.4464114383        2.0360244575        0.0575373360
 C         -5.4959170161        0.1681355890        0.5264356318
 H         -4.9584602386       -0.6253719618        0.0030400591
 H         -6.4349257509       -0.2617061941        0.8855078160
 C         -4.6846799658        0.5970900397        1.7468822525
 H         -4.6458963438       -0.2550601963        2.4306448750
 H         -5.1972857550        1.4135457154        2.2590091211
 C         -3.2355910853        1.0304490972        1.4652228716
 H         -2.6750769618        0.9396018069        2.4001995199
 H         -3.1863534052        2.0710057720        1.1522270168
 H         -5.0208021346        2.6239002121       -1.8986034140
 H         -4.1593346792        2.6516706209       -0.3759752255
 H         -4.1168260735        0.3983620579       -2.4372350997
 H         -2.9013615562        1.6527687373       -2.2984177400
 O         -2.1390765241       -0.7323336831       -1.6873064197
 C         -1.2158812932       -1.6698509338       -1.2393980560
 O         -0.7610784777       -2.3893510473       -2.1461080433
 O         -1.3161227180       -0.8090748981        2.2664408225
 C          0.1048299519       -2.6354866231        0.7212342918
 C          1.4350962713       -1.9290596693        0.8171804614
 C          2.2338344837       -2.0531010199        1.9482723598
 C          3.4467522894       -1.3924504126        2.0296598404
 C          3.8707567314       -0.5721172831        0.9996116722
 C          3.0743241647       -0.4318820469       -0.1307582349
 C          1.8764741512       -1.1248816173       -0.2241510509
 H          1.2779487936       -1.0164731564       -1.1161664348
 N          3.4499905175        0.4242605304       -1.1853246690
 S          2.3586185607        1.6231302985       -1.6149973691
 O          1.2148357129        1.0535066626       -2.2779465731
 O          3.1404209498        2.5681154211       -2.3831518195
 C          1.8852013869        2.3448325195       -0.0555165839
 C          0.7942738420        1.8330134265        0.6165512601
 C          0.4937149897        2.3206527624        1.8782327160
 C          1.2810914720        3.3140254509        2.4392435832
 C          2.3669725048        3.8282377633        1.7459418369
 C          2.6805080013        3.3339770727        0.4903835154
 H          3.5148516980        3.7038387329       -0.0834586293
 H          2.9728714165        4.6051805064        2.1834540386
 H          1.0440005041        3.6883451080        3.4225080220
 H         -0.3439765588        1.9022069256        2.4132739388
 H          0.1961344028        1.0636114178        0.1530780027
 H          4.3686930212        0.8304429883       -1.0708796694
 H          4.8069805451       -0.0395749982        1.0686259441
 H          4.0598508348       -1.5018058778        2.9108207882
 H          1.8907358258       -2.6603321911        2.7726262152
 H         -0.2349383929       -2.8290987852        1.7517436986
 C          0.2066281834       -3.9789376737        0.0157575024
 C          1.3252949646       -4.3304765641       -0.9135252978
 C          1.2432801175       -4.9797404840        0.4335249936
 H          0.9605666903       -6.0199597049        0.4888455205
 H          1.9638097659       -4.6750228566        1.1768796047
 H          1.0822589608       -4.9072715840       -1.7926281803
 H          2.0936788564       -3.5920223321       -1.0839830595
 H         -0.7710709476       -4.3707356467       -0.2453902678
