  62
        -98.93118405
 C          1.1388689906        1.3956812518        0.3279911005
 C          1.7243820685        0.4714496239        1.2248207901
 C          2.6396804055       -0.5371567357        0.6594430722
 C          2.8346834657       -0.5535067628       -0.6721193525
 C          3.7524534512       -1.4387578192       -1.4741061615
 C          5.2310377100       -1.0437194973       -1.3361086110
 C          5.6907778179       -0.7599469909        0.0910265515
 H          6.7246505622       -0.4080104072        0.0426275443
 H          5.0919756976        0.0525506084        0.5062472666
 C          5.6488228270       -1.9574672172        1.0374838387
 H          6.2594747209       -2.7634827188        0.6246670419
 H          6.1082974409       -1.6430327208        1.9781595097
 C          4.2569291907       -2.5105742041        1.3533063728
 H          4.3558577070       -3.1612551382        2.2271510496
 H          3.8886432770       -3.1361246481        0.5444254643
 C          3.2223009979       -1.4488817673        1.7125044508
 H          3.6336758835       -0.7962341997        2.4910936020
 H          2.3620099175       -1.9419863155        2.1817090246
 H          5.3961096358       -0.1383513073       -1.9252012171
 H          5.8410911282       -1.8405225555       -1.7652104997
 H          3.6072313586       -2.4802804974       -1.2023590418
 H          3.4644136742       -1.3220063197       -2.5212178362
 O          2.1966504114        0.3134054346       -1.5056869133
 C          1.3281589451        1.2905772801       -1.0511948176
 O          0.8112657180        1.9649504970       -1.9562893599
 O          1.5001841476        0.4856432801        2.4673189962
 C          0.2072206867        2.4496212739        0.9152559274
 C         -1.1854932865        2.1415171769        0.4282136592
 C         -1.8096358038        2.6812198424       -0.6896328241
 C         -3.0594665874        2.2323183477       -1.0851082670
 C         -3.7123491084        1.2285200872       -0.3943950442
 C         -3.0917394955        0.6687869097        0.7141767704
 C         -1.8512206088        1.1309035066        1.1182329818
 H         -1.3696098943        0.6788051396        1.9763537760
 N         -3.7184672068       -0.3988342810        1.3980455311
 S         -3.9107090715       -1.7808694001        0.4676667928
 O         -5.0140193233       -1.5864702766       -0.4376485381
 O         -4.0432214011       -2.8703922700        1.4082020202
 C         -2.3873870852       -1.9247784458       -0.4507424214
 C         -2.3371829162       -1.4878312918       -1.7586275478
 C         -1.1340454926       -1.5575416275       -2.4418090916
 C         -0.0084706701       -2.0594803907       -1.8085267665
 C         -0.0726884873       -2.4875733052       -0.4915435409
 C         -1.2717638028       -2.4154864273        0.1977771848
 H         -1.3595559564       -2.7465888709        1.2205653964
 H          0.8081446320       -2.8680221691        0.0008326657
 H          0.9257100823       -2.1132480495       -2.3443067641
 H         -1.0740785075       -1.2148317487       -3.4621795165
 H         -3.2360834168       -1.1106620169       -2.2178454497
 H         -3.2447047678       -0.6410605773        2.2576494148
 H         -4.6746909166        0.8546527123       -0.7044867774
 H         -3.5257541148        2.6679062151       -1.9558178706
 H         -1.3156047813        3.4290970925       -1.2826880314
 H          0.2107643789        2.2261461165        1.9938204972
 C          0.7723681744        3.8580320085        0.8090831141
 C          0.8767652992        4.6886337828       -0.4332107652
 C         -0.0767864729        5.0839478020        0.6535250103
 H          0.1633787374        5.9499819550        1.2523520382
 H         -1.1333813251        4.9467077299        0.4863470096
 H          1.7763231939        5.2753342826       -0.5578024937
 H          0.5073804135        4.2825692353       -1.3594185244
 H          1.6171159923        3.9556213963        1.4876890936
