  62
        -98.94379710
 C         -1.4637914012        0.9176360404        0.4685419445
 C         -2.5412228549        1.1062077833       -0.4344595377
 C         -3.4427914366       -0.0346433738       -0.6320445461
 C         -3.1856849264       -1.1889992401        0.0090164643
 C         -4.0398443811       -2.4209534203       -0.0653861118
 C         -5.1011193244       -2.4311181514        1.0437843103
 C         -5.8884823690       -1.1254956343        1.1556116652
 H         -6.6266387832       -1.2579025262        1.9494994206
 H         -5.2121973305       -0.3288377327        1.4736736556
 C         -6.5982312360       -0.6997218018       -0.1371722630
 H         -6.6782376422       -1.5515702187       -0.8134028932
 H         -7.6142744159       -0.3839554530        0.1086223249
 C         -5.9341505198        0.4673611770       -0.8702145252
 H         -5.7664151872        1.2909536395       -0.1717353191
 H         -6.6261593230        0.8245482113       -1.6374569436
 C         -4.6049085620        0.1495662406       -1.5670400204
 H         -4.7247585559       -0.7259954361       -2.2089503588
 H         -4.3468070279        1.0049050954       -2.1985005457
 H         -5.7881524925       -3.2583460101        0.8564260423
 H         -4.6016462425       -2.6134706123        1.9981097861
 H         -4.5181305879       -2.4648553747       -1.0421738385
 H         -3.3932292317       -3.2928497065        0.0498782752
 O         -2.1322105126       -1.3461053134        0.8459107048
 C         -1.2399172445       -0.3086788258        1.0971179559
 O         -0.3329498652       -0.6193836474        1.8901315627
 H          0.8236626377       -0.0020870937       -0.3728464373
 C          1.1511893655        0.9347321166       -0.7918811743
 C          0.5514554503        2.1176467724       -0.3849867724
 C          0.9673514641        3.3115006446       -0.9638764156
 C          1.9684805204        3.3164271217       -1.9188795734
 C          2.5648502176        2.1353488381       -2.3205512628
 C          2.1423549711        0.9321022029       -1.7628050946
 N          2.6896923092       -0.2756459089       -2.2021443697
 S          2.6688168022       -1.7057431709       -1.3470876849
 O          3.4815156308       -2.5891822356       -2.1574911856
 O          1.3142645847       -2.1351931330       -1.1079721552
 C          3.5390040167       -1.3656846442        0.1716408152
 C          2.8697144447       -1.2365235149        1.3704800158
 C          3.6063000478       -0.9682808441        2.5157090283
 C          4.9822820971       -0.8267689378        2.4440536984
 C          5.6390976921       -0.9578117710        1.2290566349
 C          4.9127956204       -1.2312510357        0.0830514914
 H          5.3855464576       -1.3637061679       -0.8764522295
 H          6.7103647823       -0.8503157144        1.1740030304
 H          5.5451746816       -0.6160284082        3.3396351557
 H          3.0888459421       -0.8700858047        3.4564571291
 H          1.7957274311       -1.3348162199        1.4106833815
 H          3.4748998853       -0.2043551375       -2.8299820811
 H          3.3367577462        2.1368197149       -3.0744784633
 H          2.2839910270        4.2491286305       -2.3609753207
 H          0.4859511656        4.2352302354       -0.6786931120
 C         -0.5364243145        2.1037765642        0.6614979554
 H         -1.1679479503        2.9890698350        0.4802715588
 C          0.0148257318        2.2195140232        2.0757177867
 C          1.4366361196        1.9138946228        2.4272976372
 C          0.9539186305        3.3311779158        2.4408158896
 H          0.8204348500        3.8234021691        3.3921455128
 H          1.2942690181        3.9808375726        1.6496591147
 H          1.6223085496        1.4162777922        3.3659672557
 H          2.0997605665        1.6033164830        1.6345077156
 H         -0.7297057168        1.9508272144        2.8181121573
 O         -2.7421526709        2.1929035150       -1.0428617053
