  62
        -98.94300144
 C          2.3274876789        0.9018029806        0.4175253610
 C          2.5299000294       -0.1761333284       -0.4782218201
 C          3.5359104596       -1.1668044185       -0.0711737710
 C          4.1675206694       -1.0444508395        1.1094941293
 C          5.1945371496       -1.9892675798        1.6712708684
 C          6.6202251196       -1.7331616588        1.1635686289
 C          6.8764066800       -2.1370892572       -0.2889361915
 H          7.9567589600       -2.1067391867       -0.4437920312
 H          6.5549870003       -3.1680173071       -0.4405744226
 C          6.2040972499       -1.2281858963       -1.3274368906
 H          5.9141731395       -0.2867351769       -0.8550845997
 H          6.9202468899       -0.9829609152       -2.1150193502
 C          4.9777576502       -1.8390251060       -2.0056576915
 H          5.2790829806       -2.7090871453       -2.5933899623
 H          4.5608087901       -1.0974440954       -2.6920129407
 C          3.8669666902       -2.2649252874       -1.0368084421
 H          2.9677633503       -2.4801599970       -1.6193723425
 H          4.1603442604       -3.1674605378       -0.5012800130
 H          7.3001373397       -2.3024129293        1.8015429884
 H          6.8519528493       -0.6734682989        1.2931843001
 H          4.9074709100       -3.0177110897        1.4506431473
 H          5.1847034594       -1.8496321610        2.7543556086
 O          3.9181733989       -0.0168002605        1.9626305503
 C          3.0239498187        0.9842308995        1.6291597312
 O          2.9324716883        1.8877195086        2.4839739822
 O          1.9145633996       -0.3342108674       -1.5679632704
 C          1.3724783986        2.0544451006        0.1459781521
 C         -0.0615800213        1.6877825998        0.4471582315
 C         -0.7952487017        2.4016063286        1.3873544221
 C         -2.1162362417        2.0780426379        1.6426656015
 C         -2.7298138812        1.0349180384        0.9724407603
 C         -2.0048965408        0.3138110896        0.0328054397
 C         -0.6833983209        0.6475413703       -0.2282773797
 H         -0.1237330706        0.0851333013       -0.9611784303
 N         -2.6058518404       -0.7677690798       -0.6344947416
 S         -4.0990276103       -0.5292451395       -1.3613505316
 O         -4.1913235498       -1.5474898785       -2.3846737327
 O         -4.2644597607        0.8378287809       -1.7989522901
 C         -5.2688270504       -0.8998818013       -0.0706726921
 C         -6.2417619508        0.0226012581        0.2611792487
 C         -7.1492646708       -0.2905779233        1.2612403082
 C         -7.0689414006       -1.5146792740        1.9071825769
 C         -6.0877686202       -2.4315309733        1.5598284761
 C         -5.1783194102       -2.1251847219        0.5601804966
 H         -4.4033671799       -2.8103257414        0.2588423060
 H         -6.0284607500       -3.3824499238        2.0644803151
 H         -7.7749943606       -1.7559185350        2.6860689365
 H         -7.9129429711        0.4206010662        1.5321886988
 H         -6.2614202510        0.9639550286       -0.2644286003
 H         -1.9754422301       -1.2482625890       -1.2607271620
 H         -3.7574013612        0.7771541879        1.1701207499
 H         -2.6741740920        2.6416317269        2.3747012320
 H         -0.3194314521        3.2082012082        1.9259637430
 H          1.6658922582        2.8486873199        0.8453897930
 C          1.4941024786        2.5961737721       -1.2663764973
 C          1.0697680182        4.0051359023       -1.5447815759
 C          2.5239016984        3.6419131828       -1.5644507060
 H          3.0366214785        3.6046102039       -2.5139250960
 H          3.1444629081        3.9787192221       -0.7464490656
 H          0.5786735383        4.2187844631       -2.4818307258
 H          0.7057805279        4.5915898813       -0.7147917253
 H          1.3049446890        1.8532498429       -2.0301857281
