  62
        -98.93193895
 C         -1.3586397204       -1.0943174897        0.3865834711
 C         -2.4502294304       -1.0907805103       -0.5136651990
 C         -3.6427375804       -0.3428720600       -0.0784239096
 C         -3.6224411005        0.3014993308        1.1019500700
 C         -4.7244200005        1.1674288711        1.6435198894
 C         -4.7148577105        2.5387039307        0.9382536685
 C         -5.9525770105        2.8170729101        0.0850768282
 H         -5.7395730004        3.6994482197       -0.5223040124
 H         -6.7889700705        3.0641021105        0.7424153380
 C         -6.3999893404        1.6758316795       -0.8333567011
 H         -7.1038664704        2.1025918190       -1.5511629814
 H         -6.9561806204        0.9361285298       -0.2555281006
 C         -5.2842232204        0.9585916690       -1.6043474005
 H         -4.4165257704        1.6084863089       -1.7207376409
 H         -5.6527375003        0.7393477283       -2.6086396504
 C         -4.8389246104       -0.3810872906       -0.9889682596
 H         -4.5496741503       -1.0563856412       -1.7997756591
 H         -5.6821493404       -0.8393258103       -0.4645144793
 H         -3.8205544705        2.5970138603        0.3140441485
 H         -4.6290515606        3.3311249611        1.6833581980
 H         -4.5461775806        1.2892310318        2.7120703693
 H         -5.6829377205        0.6723266610        1.5043809197
 O         -2.5404946806        0.3027268813        1.9232615101
 C         -1.3862221705       -0.3856874889        1.5895954206
 O         -0.4711865206       -0.2939577583        2.4303784306
 O         -2.4453162103       -1.6854117110       -1.6230431086
 C         -0.0692905404       -1.8299076899        0.0575078616
 C          0.6258208796       -1.0963638306       -1.0626641188
 C          0.6505345797       -1.5366730715       -2.3790506785
 C          1.2772474498       -0.7816921621       -3.3561896190
 C          1.9223897597        0.3990315581       -3.0345793997
 C          1.9162666497        0.8395873990       -1.7173509700
 C          1.2500387396        0.1056737496       -0.7497448196
 H          1.2015684695        0.4720236703        0.2651496002
 N          2.6106240496        2.0090099992       -1.3116236007
 S          4.1064162996        1.6629993197       -0.6090612504
 O          4.6922281595        2.9453828999       -0.2894816412
 O          4.8900146496        0.8273731491       -1.4963348098
 C          3.7165865795        0.7635512107        0.8712304102
 C          3.8130082695       -0.6139494393        0.8623693011
 C          3.4641002295       -1.3142593585        2.0053897115
 C          3.0283524094       -0.6293561578        3.1292617310
 C          2.9464901094        0.7543609322        3.1238193801
 C          3.2911360494        1.4616292014        1.9835689097
 H          3.2365482894        2.5370340914        1.9343190489
 H          2.6017242993        1.2795820228        3.9997257897
 H          2.7432264893       -1.1767526672        4.0135924914
 H          3.5250256895       -2.3911897685        2.0148767522
 H          4.1508826996       -1.1062861499       -0.0355465186
 H          2.7712597297        2.6539667287       -2.0751699312
 H          2.4338247298        0.9745480476       -3.7921373001
 H          1.2747314998       -1.1249770328       -4.3797791387
 H          0.1596532897       -2.4582185217       -2.6440814979
 H          0.5618946995       -1.7370971993        0.9521212616
 C         -0.3026476304       -3.2988138401       -0.2205956474
 C          0.8650046096       -4.2372177600       -0.1863820767
 C         -0.1632877604       -4.2798990493        0.9025805933
 H         -0.8411914104       -5.1194300493        0.9392438838
 H          0.1021428095       -3.8906997187        1.8745911630
 H          0.8962107797       -5.0499088805       -0.8958335262
 H          1.8320477696       -3.8158921399        0.0431700231
 H         -1.0847917103       -3.4815056906       -0.9463978973
