  62
        -98.94942245
 C         -1.3505214032       -1.5998116103        0.2685968551
 C         -1.6168645330       -0.6145487847        1.2495145446
 C         -2.7982532973        0.2250120467        1.0210377976
 C         -3.5489244807        0.0163034018       -0.0755986159
 C         -4.7634986749        0.8147811968       -0.4489983784
 C         -4.4046400251        1.9885712352       -1.3697855139
 C         -3.2415687816        2.8445497506       -0.8669183481
 H         -2.3139331549        2.2675359282       -0.9044252808
 H         -3.1212669233        3.6730701793       -1.5691278613
 C         -3.4250243013        3.4032403756        0.5508856040
 H         -3.1130154607        4.4498039631        0.5529470398
 H         -4.4795595511        3.3761272773        0.8299958254
 C         -2.5921317430        2.6908644305        1.6184741597
 H         -1.5607029077        2.6052324385        1.2644385114
 H         -2.5821501229        3.3147184671        2.5167332309
 C         -3.0897900020        1.2986170361        2.0304172274
 H         -2.5570598126        1.0089993203        2.9410564503
 H         -4.1576224141        1.3411441222        2.2560580818
 H         -5.2911618944        2.6148584374       -1.4889348649
 H         -4.1349836091        1.5905365911       -2.3508545962
 H         -5.4582832134        0.1556816431       -0.9728846468
 H         -5.2407299217        1.1834093492        0.4569841798
 O         -3.2629330850       -0.9374623907       -0.9981243417
 C         -2.1352045084       -1.7376806486       -0.8757604736
 O         -1.9568405766       -2.5186950509       -1.8298960859
 H          0.3899304947        0.0196198329       -0.4415354215
 C          1.0477232174       -0.6897259788       -0.9172921164
 C          0.9194062431       -2.0410353245       -0.6291331316
 C          1.7586060662       -2.9365133525       -1.2801016933
 C          2.6873296015       -2.4789076729       -2.1998069037
 C          2.8189643754       -1.1290117267       -2.4725893194
 C          1.9868772086       -0.2248043879       -1.8220511534
 N          2.0722099702        1.1550869355       -2.0573802171
 S          1.8012366452        2.2263860119       -0.7997969482
 O          0.3979928992        2.2888600716       -0.4808571974
 O          2.3976616782        3.4634839701       -1.2584819799
 C          2.7542315353        1.5739817235        0.5598192536
 C          4.1294191696        1.6734639823        0.4575002117
 C          4.9212400833        1.1378860055        1.4587088121
 C          4.3271771582        0.5071697752        2.5419480461
 C          2.9475339851        0.4203416749        2.6326533409
 C          2.1479858244        0.9577198352        1.6346829083
 H          1.0724139015        0.8915187796        1.6921149762
 H          2.4761192667       -0.0673579634        3.4710841699
 H          4.9415204706        0.0835173211        3.3207163662
 H          5.9947600505        1.2101451334        1.3916402184
 H          4.5508477000        2.1827292685       -0.3940498267
 H          2.8401827790        1.4454266720       -2.6437948127
 H          3.5476813776       -0.7772554013       -3.1865083632
 H          3.3262372168       -3.1856252872       -2.7072269068
 H          1.6804087333       -3.9914032028       -1.0741321937
 C         -0.0989622668       -2.4460908646        0.4106306921
 H          0.3171891881       -2.1809246924        1.3953364458
 C         -0.4209192555       -3.9247884675        0.4037184296
 C          0.4242445805       -4.8839425776        1.1863831247
 C         -0.9595835997       -4.5513684784        1.6541209210
 H         -1.7324391696       -5.2997017209        1.5638027623
 H         -1.0692391613       -3.9147999655        2.5201173346
 H          0.6015391669       -5.8669245944        0.7767783718
 H          1.2560297332       -4.4794470253        1.7430117444
 H         -0.8363254903       -4.2570853941       -0.5404539054
 O         -0.8937549268       -0.4442520512        2.2691980750
