  62
        -98.94117121
 C          1.9580005173        0.9186009105       -0.2205126505
 C          2.5388388416        0.2929690541        0.9132196115
 C          2.8223975471       -1.1418188383        0.8033196996
 C          2.4826211777       -1.7884230805       -0.3260417723
 C          2.7344034882       -3.2443016874       -0.5913408354
 C          4.0915341998       -3.4617363295       -1.2751857179
 C          5.2505676653       -2.7385727438       -0.5891995722
 H          6.1602675078       -2.9871821168       -1.1399008932
 H          5.1011124023       -1.6606185390       -0.6834023437
 C          5.4343930763       -3.0967336147        0.8921066872
 H          6.4963431707       -3.2651834151        1.0822779546
 H          4.9126923206       -4.0279645088        1.1151103662
 C          4.9735051840       -2.0126958968        1.8681925780
 H          5.3460908305       -2.2700433509        2.8631657479
 H          5.4191701737       -1.0548221634        1.5889575017
 C          3.4559711539       -1.8207076596        1.9852908096
 H          2.9754958986       -2.7824117113        2.1776173842
 H          3.2670278187       -1.1657166273        2.8408547958
 H          4.0214658591       -3.0993460262       -2.3033844356
 H          4.2944644506       -4.5337964172       -1.3051852318
 H          2.6972164664       -3.7885528994        0.3505555514
 H          1.9412856343       -3.6135059014       -1.2441782773
 O          1.9083212881       -1.1668622262       -1.3849348338
 C          1.6257743181        0.1934241458       -1.3655696617
 O          1.1063235954        0.6013279934       -2.4236372007
 H         -0.6870551232        1.1843785508       -0.8149042435
 C         -0.8190694165        1.8486878168        0.0261360214
 C          0.2575111057        2.5640100892        0.5295234252
 C          0.0467030308        3.4216557077        1.6029354885
 C         -1.2092567586        3.5453885716        2.1694613681
 C         -2.2708443035        2.7985654887        1.6926848625
 C         -2.0712142399        1.9433232027        0.6144803821
 N         -3.1239051645        1.1691863855        0.1017127991
 S         -2.7641343214       -0.3992524728       -0.4210277079
 O         -1.7498404879       -0.9849171024        0.4266478490
 O         -2.4939457421       -0.3660885662       -1.8359980829
 C         -4.3370179431       -1.1948612853       -0.1408253932
 C         -4.5324583379       -1.9214476758        1.0183334461
 C         -5.7696473858       -2.5049825438        1.2433821011
 C         -6.7859676866       -2.3490415352        0.3128493199
 C         -6.5748265496       -1.6170191168       -0.8463257311
 C         -5.3398513034       -1.0325884946       -1.0783350509
 H         -5.1240692251       -0.4635911321       -1.9676626989
 H         -7.3660322697       -1.5000147925       -1.5690577769
 H         -7.7478066594       -2.8032211524        0.4909117880
 H         -5.9349012327       -3.0775660063        2.1417447687
 H         -3.7099363094       -2.0202497915        1.7086030131
 H         -3.9497969412        1.1889344042        0.6847168984
 H         -3.2459243998        2.8729548454        2.1495419955
 H         -1.3586156257        4.2131626522        3.0041392670
 H          0.8804957370        3.9763164499        2.0066762344
 C          1.6354892380        2.3950089874       -0.0687018702
 H          2.3605297951        2.7796349823        0.6629154602
 C          1.7600712528        3.2110211231       -1.3392294336
 C          2.0324381035        4.6811544652       -1.2388912233
 C          3.0983648957        3.7535027027       -1.7379360126
 H          3.3533045194        3.7679860514       -2.7867012627
 H          3.9352825950        3.5416507821       -1.0884137207
 H          2.1519791384        5.1038369976       -0.2530950883
 H          1.5521617211        5.3399558839       -1.9456537247
 H          1.1048001806        2.8715544548       -2.1308327698
 O          2.8145923950        0.9182414958        1.9736949261
