  62
        -98.93781724
 C          2.3035854252        1.3687963220        0.0025234201
 C          3.0251257544        0.5745084353        0.9239177509
 C          3.7577505219       -0.5663936519        0.3598281783
 C          3.7026868837       -0.8025455665       -0.9635463633
 C          4.4319827006       -1.8846859448       -1.7154209370
 C          4.0213932570       -3.3353319476       -1.3964154737
 C          4.8802764146       -4.0143089903       -0.3221351648
 H          5.0556893367       -5.0506581809       -0.6175081899
 H          5.8555082634       -3.5269108900       -0.2933980862
 C          4.2834828154       -4.0476289732        1.0880129395
 H          3.5230026007       -4.8306260326        1.1352241035
 H          5.0806647743       -4.3206557463        1.7826765178
 C          3.6328114486       -2.7500005095        1.5675309107
 H          2.6626458963       -2.6250492707        1.0786407005
 H          3.4284010007       -2.8455914034        2.6359933420
 C          4.4688064871       -1.4796960821        1.3157780996
 H          5.4563672224       -1.7381694895        0.9371604963
 H          4.5903431301       -0.9235680981        2.2474897262
 H          2.9672153783       -3.3631855107       -1.1196513975
 H          4.1245435027       -3.9027843858       -2.3227635470
 H          4.2369609955       -1.6846093142       -2.7709654888
 H          5.5045537671       -1.7669565408       -1.5450197033
 O          2.9787974577       -0.0247851205       -1.8142177664
 C          2.2446514362        1.0598043995       -1.3567511802
 O          1.6065554111        1.6566575916       -2.2435441208
 O          3.0564098193        0.8081072883        2.1631638463
 C          1.5048073700        2.5523074321        0.5214230469
 C          0.0355156645        2.2813827371        0.3090702525
 C         -0.8206129847        3.1319356483       -0.3760036863
 C         -2.1477129953        2.7842228885       -0.5653307849
 C         -2.6493696506        1.5933568852       -0.0737351401
 C         -1.8027552318        0.7389366666        0.6212482737
 C         -0.4769491410        1.0905952442        0.8112865182
 H          0.1839637351        0.4206034617        1.3486225863
 N         -2.3049459529       -0.4756666626        1.1316607556
 S         -2.9720624365       -1.5394560978        0.0112433453
 O         -2.8456495573       -2.8502283128        0.6120522606
 O         -2.3798082102       -1.3732293095       -1.2965985398
 C         -4.6914515128       -1.0807759283       -0.0259250145
 C         -5.2807487380       -0.7107875483       -1.2187187246
 C         -6.6218411550       -0.3590529898       -1.2217509338
 C         -7.3446288142       -0.3835625893       -0.0387868545
 C         -6.7377765481       -0.7597217004        1.1505073084
 C         -5.3982203435       -1.1139560527        1.1604423251
 H         -4.8885229109       -1.4154265446        2.0602437662
 H         -7.3031539219       -0.7773763917        2.0682173690
 H         -8.3872718774       -0.1076505488       -0.0439789200
 H         -7.0950076968       -0.0666054934       -2.1453354294
 H         -4.6758482010       -0.6995656455       -2.1115008198
 H         -1.6354442437       -0.9669256293        1.7078362954
 H         -3.6802055223        1.3178498233       -0.2260079582
 H         -2.8004180742        3.4510148919       -1.1077243558
 H         -0.4465689393        4.0600938490       -0.7750908911
 H          1.6937132159        2.5777370263        1.6048668157
 C          1.9893578769        3.8485529052       -0.0896831938
 C          1.7815576189        5.1427551411        0.6369463267
 C          3.1550135264        4.5526610659        0.5354251483
 H          3.8766832059        5.0277755274       -0.1118550097
 H          3.5889435305        4.1070200661        1.4186961643
 H          1.5615097359        6.0281216164        0.0601141059
 H          1.2827600418        5.1032585847        1.5933568215
 H          1.9270443740        3.8496328681       -1.1717544293
