  62
        -98.94610697
 C         -1.6185687510       -1.3098223253        0.4057038474
 C         -1.5411936946       -0.2745396573       -0.5570866094
 C         -2.4129375066        0.8843286438       -0.3178359021
 C         -3.1805496427        0.9337711969        0.7857074324
 C         -4.0912908943        2.0632113646        1.1838252320
 C         -5.4793016746        2.0042632582        0.5313993792
 C         -5.5125809164        2.3493943003       -0.9580097348
 H         -6.5611482761        2.4786290330       -1.2334868636
 H         -5.0141904056        3.3056681178       -1.1203102444
 C         -4.8916934146        1.2813042431       -1.8691866712
 H         -4.8109995699        0.3385952948       -1.3230298015
 H         -5.5517046220        1.1009329785       -2.7207406826
 C         -3.5181991313        1.6475563695       -2.4318097879
 H         -3.6112032255        2.5143302456       -3.0900479698
 H         -3.1593176486        0.8074364887       -3.0319790852
 C         -2.4586410991        1.9565933829       -1.3656641676
 H         -1.4825702506        1.9912816003       -1.8564715040
 H         -2.6573697866        2.9279670646       -0.9127335615
 H         -5.8951224782        1.0055211503        0.6831853538
 H         -6.1189834956        2.7139041279        1.0610433551
 H         -4.2174318285        1.9931342759        2.2662932399
 H         -3.6195315737        3.0178749941        0.9494464360
 O         -3.1987096052       -0.0657946051        1.7059968150
 C         -2.4401458881       -1.2097369325        1.5330827534
 O         -2.5764704452       -2.0550949548        2.4388993059
 H          1.1431244977       -1.7961479301       -1.4915118751
 C          1.4942307218       -1.7720064933       -0.4726249166
 C          0.6586267926       -2.1773532378        0.5559236797
 C          1.1302206810       -2.1094426425        1.8638225975
 C          2.4059892250       -1.6480332749        2.1319895321
 C          3.2268838509       -1.2141438559        1.1050419713
 C          2.7566452746       -1.2640909926       -0.2001438559
 N          3.5490083573       -0.7489427171       -1.2429188576
 S          4.2058902868        0.7689987904       -0.9777020876
 O          4.2581368322        1.4025246291       -2.2773541969
 O          5.4767079152        0.6242144047       -0.3094284058
 C          3.0750153742        1.6375807884        0.1019013180
 C          1.7276286935        1.6701686567       -0.1995456280
 C          0.8688671766        2.3423200663        0.6555828696
 C          1.3653941487        2.9764598331        1.7835088503
 C          2.7218254356        2.9434245985        2.0665214276
 C          3.5845871319        2.2649145232        1.2213604298
 H          4.6440098600        2.2013248106        1.4102311871
 H          3.1072206439        3.4374484672        2.9438358134
 H          0.6886709168        3.4952057957        2.4441282439
 H         -0.1879177806        2.3525156301        0.4383870673
 H          1.3443564077        1.1656541800       -1.0729039171
 H          3.0878979246       -0.7799413053       -2.1414542315
 H          4.2153611506       -0.8273529956        1.2948689636
 H          2.7606523856       -1.6100066848        3.1505702926
 H          0.4749260068       -2.4070536349        2.6703908954
 C         -0.7743734784       -2.5718280466        0.2969701015
 H         -1.1036080356       -3.2264269239        1.1140340002
 C         -0.9850316836       -3.2917414570       -1.0185812157
 C         -0.4929026281       -4.6991647754       -1.1663723735
 C         -1.9636483781       -4.4237906874       -1.0847790926
 H         -2.5604621544       -4.5369143106       -1.9775758212
 H         -2.4844183652       -4.6895374531       -0.1763321661
 H         -0.0782490545       -5.0053601353       -2.1146359227
 H         -0.0135174194       -5.1506167101       -0.3108996934
 H         -0.9280500899       -2.6429929423       -1.8832793767
 O         -0.7929694550       -0.2956134215       -1.5697303432
