  62
        -98.94792761
 C         -0.9459546534       -1.0472805492        0.7073088754
 C         -1.5076352708       -0.9039641254       -0.5843523243
 C         -2.2215167149        0.3549768430       -0.8302268503
 C         -2.2628831874        1.2994986865        0.1262104345
 C         -2.9146720706        2.6513542811        0.0090609853
 C         -4.4240767655        2.6462733715        0.2875720631
 C         -5.2864543513        2.0138845511       -0.8052904556
 H         -6.3238351013        2.2734721094       -0.5850891101
 H         -5.0361984444        2.4609435262       -1.7679937399
 C         -5.1694387293        0.4862186270       -0.8994922882
 H         -4.7237794088        0.0973591418        0.0187805134
 H         -6.1668704217        0.0489426047       -0.9827284243
 C         -4.3548906955       -0.0147682436       -2.0923914677
 H         -4.8609123599        0.2544771466       -3.0222449079
 H         -4.3038904056       -1.1052814673       -2.0402967511
 C         -2.9187308111        0.5229106852       -2.1454779794
 H         -2.3584196352       -0.0495578078       -2.8893298236
 H         -2.9171122726        1.5708401627       -2.4467314125
 H         -4.6017610635        2.1319213523        1.2346508661
 H         -4.7355986746        3.6862483464        0.4092555188
 H         -2.4321929026        3.2958909556        0.7472571821
 H         -2.7255511370        3.0618788235       -0.9838329177
 O         -1.6757583982        1.1386118753        1.3425113921
 C         -1.0056456645       -0.0325837023        1.6609468257
 O         -0.5080231400       -0.0445513095        2.8050712767
 H          1.4563179829       -0.3344416630        0.3196303209
 C          1.7498693084       -1.2638152344       -0.1466424694
 C          1.0224979192       -2.4160414468        0.1228601861
 C          1.4224492235       -3.6061611149       -0.4702588880
 C          2.5049041522       -3.6259442798       -1.3333492506
 C          3.1979537796       -2.4672773368       -1.6324572586
 C          2.8125096614       -1.2732069084       -1.0334947614
 N          3.4914266976       -0.0721845189       -1.2905454295
 S          2.6229661679        1.3563661970       -1.3817637715
 O          1.3132816378        1.1615602039       -1.9586424493
 O          3.5010008948        2.2582081995       -2.0999996975
 C          2.4852119147        1.9141822430        0.3021068392
 C          1.2868198628        2.4490138662        0.7298146183
 C          1.1798028040        2.9014294125        2.0346596692
 C          2.2721586607        2.8162634394        2.8832252470
 C          3.4723235783        2.2848153133        2.4359810558
 C          3.5851319490        1.8296266081        1.1322226770
 H          4.4990895450        1.4055961503        0.7510974187
 H          4.3179260701        2.2195200016        3.1016819484
 H          2.1824307050        3.1617692306        3.9009392545
 H          0.2417133872        3.3005283549        2.3857557282
 H          0.4570033530        2.4792409423        0.0397742975
 H          4.2055668054       -0.1257963792       -2.0024755856
 H          4.0259471428       -2.4817220606       -2.3247288443
 H          2.8032532569       -4.5558434101       -1.7933786894
 H          0.8811286641       -4.5155361804       -0.2667949972
 C         -0.1586339475       -2.2974919492        1.0564173315
 H          0.2261652026       -2.1406872848        2.0751261741
 C         -1.0575605200       -3.5159685357        1.0544797194
 C         -0.7588296417       -4.6770477665        1.9534816002
 C         -1.9204350128       -3.7785922008        2.2508773614
 H         -2.9201540484       -4.1546409340        2.0933814770
 H         -1.8382666221       -3.0911367757        3.0803826650
 H          0.1102163398       -4.6063268091        2.5898659338
 H         -0.9640700040       -5.6740470639        1.5937435986
 H         -1.4813632882       -3.7173960080        0.0774030090
 O         -1.4213369801       -1.7799349629       -1.4842212621
