  62
        -98.94370197
 C          1.9470852001        1.2281188490        0.1571011102
 C          2.4988602198        0.3842097390        1.1543196703
 C          3.8720847298       -0.0750785512        0.9263162605
 C          4.5236051400        0.3023740588       -0.1889329394
 C          5.9415276700       -0.0492883714       -0.5493227692
 C          6.0970180400       -1.4179018914       -1.2259122092
 C          5.9126929797       -2.6230906614       -0.3030961293
 H          6.5526530196       -2.5103806514        0.5726328908
 H          6.2606521697       -3.5019160914       -0.8495643392
 C          4.4631991896       -2.8614049512        0.1427430005
 H          4.2187837196       -3.9208705112        0.0366160405
 H          3.7845090398       -2.3110529512       -0.5133839996
 C          4.1735745695       -2.4728880212        1.5927019405
 H          4.7498326393       -3.1123742913        2.2651434006
 H          3.1125977594       -2.6491327611        1.7881302603
 C          4.4817527796       -1.0078455812        1.9289740805
 H          5.5592636096       -0.8544361013        1.9850864207
 H          4.0442697495       -0.7809069212        2.9043094205
 H          7.1041009501       -1.4603770415       -1.6471248891
 H          5.3874161201       -1.4814944113       -2.0541159993
 H          6.5658780499       -0.0110850714        0.3438751808
 H          6.2835034702        0.7191067386       -1.2460198892
 O          3.9522200702        1.0914531888       -1.1346134695
 C          2.6485238903        1.5532607990       -1.0045962697
 O          2.2597705205        2.2344521790       -1.9710914098
 O          1.8728944597        0.0395721090        2.1931507102
 C          0.5257257301        1.7235454792        0.3676764200
 C         -0.4095722999        0.9078997893       -0.4903385502
 C         -0.7890441296        1.2928481093       -1.7702973702
 C         -1.6431004396        0.4978143194       -2.5148999303
 C         -2.1455929498       -0.6826360305       -1.9971919004
 C         -1.7707176500       -1.0750137706       -0.7188671304
 C         -0.9067633401       -0.2835712807        0.0224454998
 H         -0.6047053002       -0.5952475107        1.0140395298
 N         -2.3261803702       -2.2500921005       -0.1682054804
 S         -4.0027668303       -2.2297136403       -0.0566081207
 O         -4.3328225405       -3.1079409603        1.0434793193
 O         -4.5688423501       -2.5778604703       -1.3351515508
 C         -4.3865058001       -0.5327768003        0.3401950793
 C         -4.0499443203       -0.0677260903        1.5960954393
 C         -4.2454329602        1.2717854497        1.8898319693
 C         -4.7641454099        2.1210447298        0.9242391592
 C         -5.1024907898        1.6374364198       -0.3298109008
 C         -4.9102168199        0.2982284998       -0.6289710908
 H         -5.1566072198       -0.1172684502       -1.5920636808
 H         -5.5070498096        2.3001785298       -1.0774366709
 H         -4.9049565899        3.1659691998        1.1519225792
 H         -3.9853969003        1.6495483397        2.8659476893
 H         -3.6503836204       -0.7566492704        2.3233865594
 H         -1.9248949404       -2.4930308205        0.7267395696
 H         -2.8258299498       -1.3043954804       -2.5568026605
 H         -1.9257078694        0.8046223395       -3.5103406104
 H         -0.3948742595        2.2048789693       -2.1871257101
 H          0.2985690699        1.4896982892        1.4168028100
 C          0.3675432103        3.2152610492        0.1624156600
 C         -0.9092624997        3.8655711193        0.6029570298
 C          0.3609044602        4.1210644492        1.3555339500
 H          0.8281527603        5.0903932092        1.2669364400
 H          0.4793388300        3.6685884892        2.3292837100
 H         -1.3174719695        4.6605991794       -0.0013241303
 H         -1.6545880098        3.2319699994        1.0602957697
 H          0.8419229105        3.5837677492       -0.7376667300
