  62
        -98.93639085
 C          1.9764347598        0.7356048898       -0.4109612122
 C          3.0238134465        1.0408439775        0.4912677856
 C          4.2680935043        0.2614747603        0.3607150207
 C          4.3291606655       -0.7163716526       -0.5608106713
 C          5.4747663545       -1.6421398339       -0.8835169573
 C          6.2275174219       -2.2513871206        0.3092495304
 C          7.6397909259       -1.6914773859        0.4884460669
 H          8.2410995867       -2.4265656613        1.0280851214
 H          8.0905479791       -1.5637779541       -0.4979813999
 C          7.7232951781       -0.3735363322        1.2565145271
 H          7.5096087904       -0.5564187532        2.3118673453
 H          8.7543376847       -0.0180812832        1.1908889174
 C          6.7905438716        0.7330487997        0.7602482178
 H          6.7621554224        0.7487724647       -0.3286858504
 H          7.2078345413        1.6896654345        1.0818227870
 C          5.3642543628        0.6335955737        1.3215744510
 H          5.3431129612       -0.0606910661        2.1665994730
 H          5.0596376013        1.6044677524        1.7245607031
 H          6.3111700810       -3.3255041691        0.1356216779
 H          5.6476023400       -2.1176340820        1.2211376392
 H          6.1764014997       -1.1113111817       -1.5319122432
 H          5.0334773359       -2.4372316493       -1.4889761891
 O          3.2870220901       -0.9910428809       -1.3954965791
 C          2.0972662673       -0.2835135255       -1.3542739367
 O          1.2590181741       -0.6568395195       -2.1971728960
 O          2.9283153755        1.9391781960        1.3701137566
 C          0.6857776036        1.5310941051       -0.2989966397
 C         -0.3814338246        0.6340346746        0.2775114883
 C         -0.4842794734        0.4978114664        1.6590937554
 C         -1.4177939527       -0.3551687736        2.2179315505
 C         -2.2662988696       -1.0931820710        1.4114679415
 C         -2.1707542404       -0.9644657003        0.0320289376
 C         -1.2435090834       -0.0946964885       -0.5278021671
 H         -1.1664694560       -0.0201447143       -1.6008133655
 N         -3.0223314665       -1.7150192194       -0.7934482994
 S         -4.6391085321       -1.8254295096       -0.3894000303
 O         -4.8181221325       -2.8151597964        0.6442895461
 O         -5.3260327549       -2.0840301012       -1.6353290306
 C         -5.0727126346       -0.2128464332        0.2395915234
 C         -4.9527872505        0.8688559789       -0.6104281167
 C         -5.2544330302        2.1334453600       -0.1325819196
 C         -5.6661160234        2.2945844222        1.1817223814
 C         -5.7852658102        1.1983855131        2.0213666067
 C         -5.4848151871       -0.0691744823        1.5485278519
 H         -5.5634058610       -0.9481494104        2.1673476691
 H         -6.1074509591        1.3264291231        3.0421793322
 H         -5.8962089381        3.2811138889        1.5520180271
 H         -5.1640653984        2.9876594123       -0.7841579820
 H         -4.6350683740        0.7080368169       -1.6280609486
 H         -2.8842952626       -1.5587639508       -1.7803665774
 H         -2.9865941982       -1.7785651209        1.8277285524
 H         -1.4842694815       -0.4511748706        3.2909301048
 H          0.1901557306        1.0599223293        2.2894963431
 H          0.8974430789        2.3192112725        0.4356970714
 C          0.2941563121        2.1810915649       -1.6095120341
 C         -0.7433172394        3.2625728604       -1.6058829625
 C          0.6924372443        3.6020642688       -1.8679398204
 H          0.9840065941        3.8802048023       -2.8697734907
 H          1.2466897454        4.1143340389       -1.0952974658
 H         -1.4399058085        3.3118087468       -2.4286354215
 H         -1.1639234838        3.5429650456       -0.6522317426
 H          0.3187440306        1.5026905719       -2.4531848132
