  62
        -98.94148263
 C          1.8028092367        1.0398883262        0.6721545487
 C          2.0020469473       -0.3467461890        0.9104085460
 C          3.3618844811       -0.8555387900        0.7081853515
 C          4.3397481653       -0.0084329136        0.3402594433
 C          5.7865959358       -0.3616040526        0.1262902341
 C          6.0924460412       -0.9263885597       -1.2675757049
 C          5.5895512268       -2.3487933652       -1.5171099575
 H          5.9330811078       -3.0004112631       -0.7130628126
 H          6.0577099318       -2.6962896260       -2.4402577695
 C          4.0656734224       -2.4649689923       -1.6625003315
 H          3.8294459735       -3.0909167071       -2.5259917447
 H          3.6418234514       -1.4773097902       -1.8590608824
 C          3.3566989402       -3.0752142169       -0.4532599644
 H          3.6749926141       -4.1124244534       -0.3274165365
 H          2.2817224457       -3.0727462363       -0.6504288418
 C          3.5976962202       -2.3274487909        0.8646230656
 H          4.6096617136       -2.5139870326        1.2236954513
 H          2.8871786386       -2.7006280403        1.6059931983
 H          7.1780197783       -0.9204929146       -1.3902400057
 H          5.6699754481       -0.2534927097       -2.0174244590
 H          6.1059002863       -1.0744197699        0.8871598133
 H          6.3541324134        0.5625429412        0.2552549871
 O          4.1149632863        1.3143701833        0.1344153136
 C          2.8480030485        1.8685291900        0.2636357816
 O          2.8158282488        3.0856420191       -0.0069373684
 O          1.0824945316       -1.1209839826        1.2867953051
 C          0.3911035256        1.5585518045        0.8775780515
 C         -0.3792589187        1.6360694515       -0.4190646706
 C          0.0254103690        2.4637687532       -1.4610052134
 C         -0.7229209243        2.5386655603       -2.6213083734
 C         -1.8935297275        1.8124550933       -2.7561838882
 C         -2.3051781562        0.9812628026       -1.7214077868
 C         -1.5375795958        0.8880528494       -0.5689423763
 H         -1.8521870259        0.2283985387        0.2250206575
 N         -3.4790505054        0.2240443518       -1.8286399393
 S         -4.4521144802       -0.0185794277       -0.4883765089
 O         -5.7535953042       -0.3282147391       -1.0407610560
 O         -4.3975343386        1.1032166473        0.4192235083
 C         -3.7910400743       -1.4793904257        0.2831178153
 C         -3.6147770578       -2.6069621165       -0.4939002888
 C         -3.1174639500       -3.7560869275        0.0986182113
 C         -2.8093746101       -3.7594751189        1.4506560409
 C         -2.9968276580       -2.6208608685        2.2182338798
 C         -3.4932872538       -1.4681210619        1.6309519780
 H         -3.6477028142       -0.5586580009        2.1907321814
 H         -2.7531701943       -2.6240114595        3.2686308414
 H         -2.4185170104       -4.6537263505        1.9098815301
 H         -2.9689643069       -4.6444643100       -0.4940216150
 H         -3.8678000459       -2.5668110899       -1.5402571999
 H         -4.0187739719        0.3871574362       -2.6659417474
 H         -2.4845185603        1.8869283408       -3.6565057330
 H         -0.3990416900        3.1818337685       -3.4258301853
 H          0.9304016838        3.0415821040       -1.3520975788
 H         -0.1014120187        0.8012754073        1.5031100542
 C          0.3167742909        2.8917285054        1.5980130122
 C         -1.0039559033        3.3316242015        2.1534952813
 C          0.0996351147        2.9183245371        3.0795331967
 H          0.5985448167        3.6804497785        3.6592501295
 H          0.0092034839        1.9705448051        3.5898384868
 H         -1.2617019097        4.3782187266        2.0964546113
 H         -1.8482561670        2.6692359914        2.0266192484
 H          0.9610596639        3.6495231892        1.1721566382
