  62
        -98.93758157
 C          1.0276308228        1.8213834049        0.3616611738
 C          1.4655704200        1.1892181882       -0.8337556307
 C          2.6441222609        0.3119948102       -0.7095752448
 C          3.2524575117        0.1493895524        0.4770002161
 C          4.5090981974       -0.6353829422        0.7413804599
 C          4.3004685082       -2.1414361875        0.9463084320
 C          3.9468512204       -2.9249126333       -0.3180809441
 H          4.6694804627       -2.6979249760       -1.1025082088
 H          4.0466212456       -3.9855344341       -0.0796631467
 C          2.5240752775       -2.6668991698       -0.8324849623
 H          2.0425238953       -3.6154764988       -1.0820973754
 H          1.9295987891       -2.2156138297       -0.0358228461
 C          2.4388851249       -1.7841285570       -2.0781231469
 H          2.8956914599       -2.3031311137       -2.9245569997
 H          1.3817411668       -1.6305948449       -2.3135734646
 C          3.1083173568       -0.4100484902       -1.9381104593
 H          2.8288281698        0.1926709361       -2.8060810218
 H          4.1933834922       -0.5214173006       -1.9249381555
 H          5.2316715554       -2.5449881391        1.3503750439
 H          3.5195870340       -2.2909484186        1.6951162159
 H          5.2121886880       -0.4755425605       -0.0771401906
 H          4.9411558954       -0.2214797714        1.6553124458
 O          2.7925351723        0.7477942884        1.6062978276
 C          1.6830858442        1.5734713863        1.5775773287
 O          1.3813571101        2.0307703855        2.6990006788
 O          0.9405634236        1.3340980920       -1.9668918532
 C         -0.1463419441        2.7792265427        0.5058992046
 C         -1.5095185895        2.1261831647        0.4215774360
 C         -2.5186815089        2.5758849359        1.2700284631
 C         -3.7789619408        2.0110481739        1.2369023378
 C         -4.0500141362        0.9567601648        0.3827166986
 C         -3.0514104796        0.4969353633       -0.4656851288
 C         -1.7993783728        1.0999623777       -0.4638405201
 H         -1.0610473257        0.7542089124       -1.1680108521
 N         -3.2852070227       -0.5958525723       -1.3191383196
 S         -2.1680478914       -1.8452101726       -1.3348858958
 O         -1.0293565390       -1.4999995624       -2.1409571846
 O         -2.9291969353       -2.9956968423       -1.7753536710
 C         -1.7016919532       -2.0493363921        0.3746351715
 C         -2.5267450525       -2.7951126038        1.1936446044
 C         -2.2148582629       -2.9054909251        2.5387373267
 C         -1.0964848223       -2.2590434459        3.0437727935
 C         -0.2786079473       -1.5131585399        2.2094494885
 C         -0.5808462105       -1.4082892397        0.8609584275
 H          0.0379212468       -0.8368202709        0.1876036568
 H          0.5855785646       -0.9974579249        2.6010422252
 H         -0.8569762624       -2.3344739343        4.0927041528
 H         -2.8449025851       -3.4884906404        3.1908643996
 H         -3.3832742700       -3.2853042194        0.7598829670
 H         -4.2214393770       -0.9706936266       -1.2572500038
 H         -5.0246570518        0.4931946534        0.3708653761
 H         -4.5508817264        2.3771319129        1.8961735133
 H         -2.3016981806        3.3723816260        1.9666900388
 H         -0.0467228365        3.1310015910        1.5447771446
 C         -0.1518740693        4.0530194179       -0.3397884019
 C          1.0362974232        4.5440996366       -1.1062980623
 C         -0.1910001670        4.0855899585       -1.8355174301
 H         -0.8168499471        4.8271335708       -2.3108474523
 H         -0.1308607773        3.1471099016       -2.3615071119
 H          1.2695597953        5.5984479519       -1.0785443427
 H          1.9057874430        3.9041293232       -1.1479617365
 H         -0.7419148856        4.8241068247        0.1481924181
