  62
        -98.94426788
 C         -2.0306494004       -0.9062997845        0.3263071889
 C         -2.3289980812        0.2560267934       -0.4252170106
 C         -3.5826387117        0.9435771910       -0.0779642187
 C         -4.3421421675        0.4770718705        0.9288904763
 C         -5.6583437290        1.0571967473        1.3561876506
 C         -6.8268419974        0.3909630432        0.6163301827
 C         -6.6363160442        0.3154009850       -0.8985262870
 H         -5.8017161701       -0.3537058754       -1.1198335482
 H         -7.5351664512       -0.1427791042       -1.3167514830
 C         -6.3911823376        1.6709220339       -1.5758564452
 H         -7.0057172237        1.7284104816       -2.4767934795
 H         -6.7094435809        2.4784417715       -0.9154570225
 C         -4.9436387223        1.9112882912       -2.0083939828
 H         -4.9257532043        2.7873445406       -2.6623490635
 H         -4.5903776680        1.0588242139       -2.5939727332
 C         -3.9417709792        2.1664900207       -0.8751643264
 H         -3.0091146323        2.5147685878       -1.3286562246
 H         -4.3187461469        2.9555704391       -0.2212347193
 H         -6.9431754322       -0.6260158810        0.9979478141
 H         -7.7393969650        0.9452298185        0.8431542368
 H         -5.7753609161        0.8888922275        2.4281399975
 H         -5.6570924742        2.1286757409        1.1654408506
 O         -4.0099933686       -0.6219439191        1.6513494159
 C         -2.8651609139       -1.3420488043        1.3621398569
 O         -2.6980387826       -2.3435301739        2.0860978144
 H          0.3910309538        0.5978751928       -0.4866409430
 C          0.9113013220        0.0705614201        0.2989976591
 C          0.4277433571       -1.1572948756        0.7280984641
 C          1.1031840034       -1.8189297406        1.7468200816
 C          2.2269670888       -1.2578383093        2.3284769152
 C          2.6997647084       -0.0284967615        1.9063470836
 C          2.0320193970        0.6391048364        0.8871341513
 N          2.5015030739        1.8881678916        0.4489154000
 S          4.1459495404        2.0675598305        0.2093815033
 O          4.7924138035        2.3384639938        1.4700889651
 O          4.2771470409        3.0972827469       -0.7975367222
 C          4.7040146458        0.4953311150       -0.4248294784
 C          5.6764451284       -0.2128198188        0.2511390267
 C          6.0768911212       -1.4433289279       -0.2447727983
 C          5.4975053514       -1.9431821062       -1.4003398509
 C          4.5238939313       -1.2178286725       -2.0700349875
 C          4.1208486629        0.0134647074       -1.5801093647
 H          3.3676022169        0.6009993694       -2.0803409580
 H          4.0742551893       -1.6078954851       -2.9689806307
 H          5.8054869486       -2.9033280173       -1.7830685341
 H          6.8350823656       -2.0082888024        0.2731076369
 H          6.0967842632        0.2116511527        1.1483623369
 H          1.9649532198        2.2812482662       -0.3102744629
 H          3.5642073940        0.4301784634        2.3586306548
 H          2.7386146137       -1.7810213710        3.1217132582
 H          0.7309702975       -2.7718821212        2.0935053395
 C         -0.7977209353       -1.7667679624        0.0893773714
 H         -1.0012469290       -2.7164009461        0.6015330911
 C         -0.5541095692       -2.0596709925       -1.3792313005
 C          0.2734805855       -3.2502351757       -1.7544537202
 C         -1.2046010461       -3.2560687462       -2.0028353667
 H         -1.5604129997       -3.1780261559       -3.0193267322
 H         -1.8270171463       -3.8728777510       -1.3705144015
 H          0.9348392033       -3.1702721763       -2.6031121358
 H          0.6551198137       -3.8663868362       -0.9546828355
 H         -0.4655894639       -1.1696722425       -1.9876455660
 O         -1.6028683338        0.7210862551       -1.3456385228
