  62
        -98.93911805
 C         -2.5457104008       -0.9046820454        0.2332035470
 C         -3.2027993489        0.0711315117        1.0246308013
 C         -3.5667557098        1.3227626002        0.3484067401
 C         -3.2319991457        1.4906516174       -0.9437023265
 C         -3.4853798373        2.7368457114       -1.7405562539
 C         -2.2939167879        3.7009785193       -1.6555322472
 C         -1.8101971643        3.9626190344       -0.2291214895
 H         -1.3875975341        3.0396856523        0.1760117062
 H         -0.9917387246        4.6831229689       -0.2920944002
 C         -2.8911178137        4.4928007884        0.7235708447
 H         -3.7278048563        4.8903457857        0.1482167800
 H         -2.4720680592        5.3192837407        1.3011749290
 C         -3.4106746188        3.4641362683        1.7296425113
 H         -2.5665834995        2.9935554941        2.2403393338
 H         -3.9964638584        3.9936724467        2.4855245071
 C         -4.3025383970        2.3573181551        1.1532018369
 H         -4.7492832838        1.8199537491        1.9948183239
 H         -5.1060358854        2.8024386073        0.5630796218
 H         -2.5792243324        4.6446014778       -2.1243440604
 H         -1.4616436469        3.2760962342       -2.2225012828
 H         -3.6370721543        2.4531122847       -2.7833618726
 H         -4.3864260761        3.2221152684       -1.3700734371
 O         -2.5718206262        0.5486742222       -1.6631992785
 C         -2.1955947250       -0.6633504203       -1.0968246925
 O         -1.5747316521       -1.4101663422       -1.8759007448
 H         -0.0860268789       -0.5837720029        1.3216336673
 C          0.2468097771       -1.5147426328        0.8757186520
 C         -0.6911490900       -2.5006233758        0.5931904670
 C         -0.2498568277       -3.6810757032        0.0117792114
 C          1.0900790966       -3.8564918463       -0.2899721584
 C          2.0154450557       -2.8648845910       -0.0228489247
 C          1.5842488283       -1.6815165481        0.5601147238
 N          2.5233662770       -0.6516836480        0.8171253492
 S          3.0718731135        0.1893345858       -0.5462251418
 O          2.2686594770        1.3824983924       -0.7257213870
 O          3.1561028069       -0.7143260388       -1.6635306409
 C          4.7124225476        0.6474376392       -0.0199630367
 C          5.6700129128       -0.3456100577        0.0516772145
 C          6.9448135162       -0.0182298034        0.4836448012
 C          7.2393396216        1.2907448292        0.8360511538
 C          6.2676498306        2.2764492450        0.7594198985
 C          4.9895989200        1.9540800846        0.3293281527
 H          4.2040021467        2.6880971015        0.2495919517
 H          6.4990173253        3.2934184508        1.0327229522
 H          8.2325645212        1.5440252812        1.1716184570
 H          7.7029361817       -0.7822885938        0.5441754216
 H          5.3979786707       -1.3467686949       -0.2386468767
 H          2.1451182322        0.0390013743        1.4532835242
 H          3.0543877975       -2.9825427108       -0.2821393213
 H          1.4153272502       -4.7765044938       -0.7515963501
 H         -0.9589563864       -4.4540252241       -0.2351635059
 C         -2.1344035728       -2.2001682572        0.9119887733
 H         -2.2031812904       -1.9745488675        1.9900366063
 C         -3.0715279925       -3.3707719362        0.6584410710
 C         -4.5136373303       -3.1457039660        0.3179941394
 C         -3.5808330192       -3.7099583166       -0.7091891744
 H         -3.6820156078       -4.7524625132       -0.9736579418
 H         -3.2697754653       -3.0803346203       -1.5278745294
 H         -5.2521647393       -3.7982830268        0.7587929952
 H         -4.8471009499       -2.1248220898        0.1995105511
 H         -2.8618150582       -4.2058390607        1.3197833268
 O         -3.4660151605       -0.0955518031        2.2459604159
