  62
        -98.94623227
 C         -1.3772469396       -1.1185641287       -0.1298240057
 C         -2.4754906890       -1.1188101257        0.7670242102
 C         -3.2366633890        0.1333017656        0.8577478639
 C         -2.8390292732        1.1961117890        0.1345595345
 C         -3.5531756474        2.5154299000        0.0923965926
 C         -4.5885132157        2.5499006182       -1.0405417296
 C         -5.5154014519        1.3347004617       -1.0680935210
 H         -6.2220681573        1.4828575751       -1.8875881992
 H         -4.9297386066        0.4439544203       -1.3064888467
 C         -6.2890961465        1.0966900868        0.2362192410
 H         -6.2877034937        2.0051834605        0.8396448182
 H         -7.3294967646        0.8733073444       -0.0094462611
 C         -5.7701341158       -0.0710219023        1.0774239970
 H         -6.5096666306       -0.2859157023        1.8534994274
 H         -5.6848576332       -0.9633468524        0.4520293265
 C         -4.4246667060        0.1574230179        1.7778444128
 H         -4.4581104229        1.0915233579        2.3421803092
 H         -4.2744491596       -0.6647038969        2.4836815415
 H         -5.1826874583        3.4598180249       -0.9379530831
 H         -4.0575035359        2.5960305341       -1.9940261317
 H         -4.0410566670        2.6901865255        1.0492364169
 H         -2.8185715478        3.3032373441       -0.0794294472
 O         -1.7610442959        1.1703102694       -0.6869280548
 C         -1.0061389598        0.0183006982       -0.8497415772
 O         -0.0617959798        0.1438515579       -1.6512142588
 O         -2.8042424451       -2.1209940529        1.4563271263
 C         -0.5570143679       -2.3938811207       -0.2469097488
 C          0.7798490213       -2.1296332385        0.3976138346
 C          0.9144277614       -2.2654719548        1.7763478387
 C          2.0995703983       -1.9354582739        2.4074898770
 C          3.1695226276       -1.4432427890        1.6796591814
 C          3.0381669077       -1.2916487495        0.3060608194
 C          1.8602925926       -1.6556575611       -0.3309041697
 H          1.7730316864       -1.5239628195       -1.3973580348
 N          4.1061628479       -0.7429276905       -0.4385834040
 S          4.5262910859        0.8326121185       -0.0505169526
 O          5.3706866859        1.2834997248       -1.1336293762
 O          5.1210456070        0.8421917458        1.2627467452
 C          3.0013170203        1.7573030557       -0.0327753389
 C          2.5964936701        2.3908886229       -1.1896274251
 C          1.3971850658        3.0825042329       -1.1913802931
 C          0.6211138629        3.1171913026       -0.0445692824
 C          1.0343187153        2.4649371479        1.1059498300
 C          2.2374591346        1.7787182271        1.1166479154
 H          2.5937309623        1.2673631346        1.9960821882
 H          0.4199880364        2.4824826877        1.9927435804
 H         -0.3167443669        3.6498430628       -0.0499413720
 H          1.0648564375        3.5809417982       -2.0876931918
 H          3.2293723671        2.3397344643       -2.0612299356
 H          3.9476948334       -0.7965447810       -1.4357322225
 H          4.0916582219       -1.1517372908        2.1559632288
 H          2.1907776577       -2.0539977754        3.4766771129
 H          0.0696905039       -2.6197226291        2.3503574089
 H         -1.0893144219       -3.1397279176        0.3579740019
 C         -0.4644873646       -2.8975660348       -1.6716388447
 C          0.0272607758       -4.2909290059       -1.9225653742
 C         -1.4171196933       -3.9555135392       -2.1381968415
 H         -1.7895965410       -3.9029634517       -3.1503469922
 H         -2.1398565564       -4.3276343775       -1.4268936504
 H          0.6483311050       -4.4724351942       -2.7864147426
 H          0.2861373095       -4.8892528877       -1.0621163687
 H         -0.1954987730       -2.1292972998       -2.3858633170
