  62
        -98.94570687
 C         -2.4367289606       -0.8479598705        0.1634216568
 C         -1.9577755698        0.0326436108       -0.8368069119
 C         -2.3869914547        1.4309651401       -0.7077837683
 C         -3.1942735727        1.7947055054        0.3053208316
 C         -3.7304620563        3.1783096074        0.5562710082
 C         -2.7665986341        4.0918944669        1.3262483274
 C         -1.5534840169        4.5767670007        0.5311416781
 H         -1.8899467965        5.0205099066       -0.4061811449
 H         -1.0833190338        5.3689927878        1.1170208146
 C         -0.5089177838        3.4888678344        0.2423968534
 H          0.4895224440        3.8726284523        0.4628996683
 H         -0.6766042071        2.6388749899        0.9083300575
 C         -0.4966716337        2.9905031889       -1.2026085006
 H          0.2519847374        2.1986920536       -1.2854186671
 H         -0.2031560311        3.8050948761       -1.8674703564
 C         -1.8381555092        2.4248349474       -1.6859506657
 H         -2.5517990576        3.2311036792       -1.8530108355
 H         -1.6688313518        1.9021062838       -2.6301164195
 H         -2.4288668079        3.5668505296        2.2230773844
 H         -3.3356751557        4.9665295001        1.6496821222
 H         -4.6379784688        3.0569488453        1.1516846365
 H         -3.9973137061        3.6454942057       -0.3919214798
 O         -3.6412023187        0.9131255468        1.2402475778
 C         -3.2598488243       -0.4194703005        1.2036477204
 O         -3.7096899592       -1.1094243689        2.1421412344
 O         -1.2119756032       -0.3262044632       -1.7835831736
 C         -2.0526978907       -2.3144629125        0.1195096021
 C         -0.5523157887       -2.4823370429        0.0820549231
 C          0.0749502793       -3.4527534106       -0.6891172445
 C          1.4521889231       -3.5872896607       -0.6628947424
 C          2.2331259666       -2.7635150846        0.1261625436
 C          1.6184108912       -1.7822102505        0.8946682231
 C          0.2364566679       -1.6568960429        0.8733763540
 H         -0.2412572398       -0.8995038156        1.4834255580
 N          2.3843130847       -0.9453408674        1.7224371926
 S          3.8320472565       -0.2708641127        1.2356319184
 O          4.7826339012       -1.3225492662        0.9749463248
 O          4.1741811246        0.6544613983        2.2913132189
 C          3.5025674966        0.6323034114       -0.2661886379
 C          3.4962946550       -0.0310530592       -1.4769189902
 C          3.2233529153        0.6863549588       -2.6308071324
 C          2.9720682836        2.0472844261       -2.5570167009
 C          2.9874794819        2.7000660980       -1.3337879950
 C          3.2479164823        1.9865011847       -0.1754969490
 H          3.2750636111        2.4549570958        0.7952471278
 H          2.7944782367        3.7593967933       -1.2797640223
 H          2.7621129840        2.6025175718       -3.4574563665
 H          3.2080402499        0.1800411733       -3.5824200789
 H          3.7100859846       -1.0863164013       -1.5025898333
 H          1.8401997363       -0.2732679086        2.2418136081
 H          3.3050305807       -2.8697104583        0.1660066281
 H          1.9255127352       -4.3493036149       -1.2634480913
 H         -0.5147837157       -4.1062611964       -1.3104721692
 H         -2.4192211488       -2.7557125143        1.0586982356
 C         -2.7575998653       -2.9896105125       -1.0406352455
 C         -3.1852917206       -4.4223322382       -0.9430732253
 C         -4.2098596494       -3.3298338089       -0.9002411560
 H         -4.8576708796       -3.1927992669       -1.7530635930
 H         -4.6809199272       -3.1034421772        0.0456191434
 H         -3.1336811035       -5.0380714562       -1.8284833991
 H         -2.9700486730       -4.9487441518       -0.0253589222
 H         -2.4218747022       -2.6175212634       -2.0018691369
