  62
        -98.94410966
 C         -1.4497248488       -1.3021976486        0.7062388685
 C         -2.4712767133       -1.1949831187       -0.2687399529
 C         -3.3605054022       -0.0319212878       -0.1305613318
 C         -3.1311898599        0.8840777658        0.8268981681
 C         -3.9613434052        2.1096207541        1.1002891324
 C         -3.6528304691        3.3083204515        0.1921623731
 C         -4.1373677111        3.1783553545       -1.2526053401
 H         -5.1927434979        2.9040995276       -1.2587238125
 H         -4.0563009883        4.1678198543       -1.7070816455
 C         -3.3397568388        2.1800096014       -2.1029504518
 H         -3.1047701711        2.6295780372       -3.0703827954
 H         -2.3880644554        1.9614309481       -1.6138954783
 C         -4.0591290852        0.8600827127       -2.3759025664
 H         -3.3864627799        0.2134386966       -2.9449782561
 H         -4.9457142996        1.0441338789       -2.9869217820
 C         -4.4866573627        0.1051248377       -1.1114340729
 H         -5.3346964387        0.6060901098       -0.6445125282
 H         -4.7938994648       -0.9019387084       -1.4043873607
 H         -2.5760512780        3.4899924544        0.1969817890
 H         -4.1375104929        4.1816733708        0.6347440905
 H         -3.7554116975        2.3983439027        2.1332420449
 H         -5.0192369384        1.8571377308        1.0181364665
 O         -2.0967792083        0.7788020017        1.7027950945
 C         -1.2399877988       -0.3057886058        1.6652604738
 O         -0.3419005260       -0.2794217435        2.5300574664
 O         -2.6615990329       -2.0156038334       -1.2033942950
 C         -0.4611466018       -2.4589317969        0.7491755277
 C          0.6607963396       -2.1486191922       -0.2105592621
 C          0.5288885181       -2.3147735213       -1.5848247020
 C          1.5582302861       -1.9529611254       -2.4360855489
 C          2.7344801093       -1.4173491305       -1.9393288346
 C          2.8686668418       -1.2373552797       -0.5697020068
 C          1.8390821254       -1.6058339891        0.2841241192
 H          1.9385408197       -1.4424248774        1.3491767507
 N          4.0544904959       -0.6554617318       -0.0611239189
 S          4.2269350384        0.9803462538       -0.3821885644
 O          4.2933679777        1.1644186505       -1.8088660137
 O          5.3782205970        1.4116107257        0.3765240799
 C          2.7461904441        1.7311947873        0.2683087059
 C          2.7650291663        2.2564033318        1.5446712252
 C          1.5951079611        2.7741829175        2.0749011381
 C          0.4283768779        2.7467148221        1.3278742811
 C          0.4259419078        2.2093115523        0.0509636724
 C          1.5924472473        1.6937868307       -0.4883457901
 H          1.6216631965        1.2691132974       -1.4790951077
 H         -0.4856703930        2.1755605303       -0.5260556198
 H         -0.4872354314        3.1312807413        1.7492502817
 H          1.5906209216        3.1860992740        3.0711824815
 H          3.6936780631        2.2569456887        2.0930509820
 H          4.1637389661       -0.7983079003        0.9340307195
 H          3.5370176714       -1.1115454354       -2.5905848897
 H          1.4429573145       -2.0863890913       -3.5012022252
 H         -0.3966005134       -2.7013875883       -1.9818305886
 H         -0.0399965168       -2.4509144837        1.7635566169
 C         -1.0896916561       -3.8145990206        0.5064817523
 C         -0.3260375283       -5.0417177205        0.9010530726
 C         -1.5389653229       -4.6308426234        1.6793515008
 H         -2.4393535301       -5.2186546933        1.5823835335
 H         -1.3950637846       -4.2146507938        2.6661033421
 H         -0.3906995426       -5.9142592276        0.2694335934
 H          0.6416057994       -4.9027317044        1.3596833380
 H         -1.6956730491       -3.8636880447       -0.3874592525
