  62
        -98.94359261
 C          1.7491366005        1.1946272496        0.3904178106
 C          2.6892464106        0.9905768595       -0.6490841894
 C          3.9501284904        0.3443474793       -0.2527737893
 C          4.1336805503       -0.0218900609        1.0283488906
 C          5.3445490501       -0.7365445112        1.5527704607
 C          5.1570124998       -2.2592339012        1.4989339504
 C          4.6575413499       -2.7728580309        0.1483034303
 H          4.5922107797       -3.8609474109        0.2181677002
 H          3.6439679299       -2.4021639707       -0.0231885797
 C          5.5449606100       -2.3894341809       -1.0442059395
 H          6.5337999800       -2.0952277511       -0.6904368794
 H          5.6761596899       -3.2684094709       -1.6788425796
 C          4.9731243003       -1.2816074407       -1.9309409895
 H          3.9462884403       -1.5300891105       -2.2116480796
 H          5.5633961804       -1.2445272607       -2.8503791294
 C          4.9795448705        0.1279435292       -1.3259368993
 H          4.7313591607        0.8320106594       -2.1254619692
 H          5.9789601305        0.3654319490       -0.9560049692
 H          4.4313089497       -2.5465419011        2.2635033803
 H          6.1098953297       -2.7336091614        1.7405480005
 H          6.2139512002       -0.4462018313        0.9663014708
 H          5.5000798500       -0.4352024914        2.5900997307
 O          3.1991773002        0.1723371091        1.9940748006
 C          1.9828680803        0.7616268594        1.6967376105
 O          1.2010895103        0.8428617994        2.6670547605
 O          2.4982075407        1.3287615297       -1.8451282793
 C          0.3978586207        1.8336631398        0.1117768605
 C         -0.4332141494        0.8598859701       -0.6870040797
 C         -0.7340281693        1.0195673303       -2.0324757497
 C         -1.4941092594        0.0712236005       -2.6969275799
 C         -1.9827270296       -1.0396124195       -2.0335937000
 C         -1.6901574898       -1.2037955197       -0.6857745700
 C         -0.9167249097       -0.2630941499       -0.0259414299
 H         -0.6827425798       -0.3934820101        1.0236945401
 N         -2.2488397101       -2.2998876597        0.0136294398
 S         -3.9231750900       -2.2035336994        0.1418354296
 O         -4.2789005503       -2.9903259195        1.3011168495
 O         -4.5127853300       -2.6111014992       -1.1076734705
 C         -4.2224910998       -0.4678255394        0.4256397298
 C         -3.9649509298        0.0409811904        1.6829922299
 C         -4.0691588996        1.4070187704        1.8881615301
 C         -4.4151540493        2.2374903506        0.8331655401
 C         -4.6743004393        1.7108176508       -0.4226217099
 C         -4.5762145095        0.3448783308       -0.6324535201
 H         -4.7661724395       -0.1045933590       -1.5929635202
 H         -4.9427334991        2.3601392209       -1.2400791499
 H         -4.4833539892        3.3023095906        0.9927626003
 H         -3.8678153496        1.8185809802        2.8644310501
 H         -3.6951492200       -0.6354839797        2.4787223398
 H         -1.8539982502       -2.4105511199        0.9376397398
 H         -2.5969354997       -1.7745429193       -2.5285618902
 H         -1.7136627393        0.2029848207       -3.7453522399
 H         -0.3618497791        1.8795742603       -2.5632318595
 H         -0.0833170094        1.9490898398        1.0928775905
 C          0.5230560210        3.1993505599       -0.5269572693
 C         -0.6695461989        4.1068591201       -0.5270451693
 C          0.5070838211        4.4148420198        0.3481077309
 H          1.1437257013        5.2461373997        0.0846755110
 H          0.4083261310        4.2630851897        1.4132167008
 H         -0.8443455787        4.7307624202       -1.3898769792
 H         -1.5693488490        3.7390940802       -0.0570487394
 H          1.1795602010        3.2134718299       -1.3875436892
