  62
        -98.94522331
 C          0.9620176735        1.5258958478       -0.6626303874
 C          2.1931946813        1.7839824338       -0.0034469236
 C          3.2310584052        0.7572392065       -0.1329751523
 C          2.9861447871       -0.3459490364       -0.8627347721
 C          3.9484828984       -1.4761492721       -1.1099823770
 C          3.9979641839       -2.5177007604        0.0160642009
 C          4.6885144516       -2.0597072954        1.3009600751
 H          4.8486595822       -2.9488261656        1.9140645852
 H          5.6703121940       -1.6501632729        1.0615815445
 C          3.8854339104       -1.0359795289        2.1156671148
 H          2.8455091477       -1.0367696387        1.7806703515
 H          3.8840218580       -1.3263231826        3.1686492076
 C          4.4243483984        0.3923348400        2.0400880012
 H          3.7607451637        1.0415950057        2.6169890428
 H          5.4167207847        0.4359081601        2.4946750539
 C          4.5148123207        0.9541789136        0.6154517743
 H          5.3426424019        0.4904032306        0.0792954741
 H          4.6988973162        2.0293511839        0.6816150990
 H          2.9771158497       -2.8254995186        0.2467350139
 H          4.5350757458       -3.3874714502       -0.3690787809
 H          3.6148621295       -1.9715139222       -2.0240598518
 H          4.9476799278       -1.0730800616       -1.2790663884
 O          1.8063302814       -0.5458085475       -1.5037898266
 C          0.7647527348        0.3688507000       -1.4175677935
 O         -0.2451549503        0.0234791106       -2.0616478635
 O          2.4163780196        2.8348852251        0.6556937576
 C         -0.1234919787        2.5746688758       -0.4928271441
 C         -1.0735617691        2.1969556399        0.6192095477
 C         -1.2834517368        3.0483651514        1.6974490186
 C         -2.1592749644        2.6969100710        2.7094204547
 C         -2.8391047879        1.4938411452        2.6642372857
 C         -2.6294772618        0.6304191578        1.5931650741
 C         -1.7521463034        0.9866399339        0.5797351376
 H         -1.6048894141        0.3196329897       -0.2540944395
 N         -3.2617662710       -0.6159081648        1.5537421721
 S         -3.5079368913       -1.4661743000        0.1404756804
 O         -3.9444424885       -0.6088097894       -0.9364771242
 O         -4.4468675942       -2.5020760942        0.5250611161
 C         -1.9498714018       -2.2419094160       -0.2273639399
 C         -1.6573466710       -2.5438897469       -1.5410423699
 C         -0.4850235616       -3.2237003871       -1.8282963743
 C          0.3697448296       -3.5888429791       -0.8017090140
 C          0.0639939386       -3.2732855849        0.5132930067
 C         -1.1081002147       -2.5962514579        0.8076387441
 H         -1.3711371373       -2.3332060154        1.8191748264
 H          0.7334517221       -3.5527706304        1.3123012571
 H          1.2812441482       -4.1189027665       -1.0310233304
 H         -0.2392757269       -3.4546812213       -2.8523451697
 H         -2.3387605250       -2.2259667669       -2.3136702495
 H         -3.9737539247       -0.7817757129        2.2482873674
 H         -3.5224174448        1.2176811891        3.4525656362
 H         -2.3156096760        3.3665120450        3.5414457834
 H         -0.7464345773        3.9841783441        1.7442605069
 H          0.4054462701        3.4877199756       -0.1858701570
 C         -0.8991908384        2.8761024800       -1.7598346598
 C         -1.5195379988        4.2295091811       -1.9280706302
 C         -0.3321143065        3.8403540187       -2.7558709552
 H         -0.4746268776        3.6376550086       -3.8066167829
 H          0.6209394506        4.2934756723       -2.5240130992
 H         -2.4835001899        4.2955406843       -2.4089769354
 H         -1.3709575824        4.9519691616       -1.1397442889
 H         -1.4433215314        2.0231381689       -2.1452326205
