  62
        -98.93946243
 C         -2.0357795391       -1.0964551480       -0.0024610788
 C         -2.7381678815       -0.3550482839        0.9736117249
 C         -3.3786631047        0.8933965568        0.5248987664
 C         -3.2371693105        1.2825463641       -0.7562297033
 C         -3.7204083298        2.5218370489       -1.4808679349
 C         -4.7763884661        3.4315957387       -0.8583839002
 C         -6.1660964892        2.8071377305       -0.7363740533
 H         -6.8059504971        3.5028722285       -0.1893994026
 H         -6.5825094338        2.6901403347       -1.7399247087
 C         -6.2175630527        1.4423243793       -0.0544935453
 H         -7.2601520619        1.1135442314       -0.0432612284
 H         -5.6571097967        0.7156510778       -0.6460743297
 C         -5.7059573227        1.4108746779        1.3841829621
 H         -5.9464947034        0.4278030793        1.7975679495
 H         -6.2313457289        2.1610288074        1.9782369454
 C         -4.1918472504        1.6252843828        1.5540014447
 H         -3.9394130583        2.6832512123        1.5609645463
 H         -3.8990800497        1.2136618427        2.5245784148
 H         -4.8616197425        4.3017268015       -1.5150310695
 H         -4.4356489675        3.7988358721        0.1052901222
 H         -4.0761937069        2.1757571475       -2.4565742249
 H         -2.8203507463        3.1162821859       -1.6758969362
 O         -2.5156413681        0.5506912086       -1.6552339004
 C         -1.8984012557       -0.6408948935       -1.3127639337
 O         -1.2808827911       -1.1849190624       -2.2465663520
 O         -2.8162643292       -0.7120478519        2.1816113436
 C         -1.3372131421       -2.3820082544        0.4071563272
 C          0.1515758535       -2.1821332514        0.2653767032
 C          0.9731074438       -2.9797045522       -0.5186356918
 C          2.3216509328       -2.6888259897       -0.6397389951
 C          2.8781647648       -1.6063444832        0.0164230061
 C          2.0660402072       -0.8081317016        0.8118070467
 C          0.7198094970       -1.1044690235        0.9354958309
 H          0.0865103091       -0.4748176491        1.5496384021
 N          2.6269754077        0.3072243650        1.4775149336
 S          3.0912404917        1.5673235369        0.4577354510
 O          3.1165697255        2.7469117521        1.2961945087
 O          2.2492421163        1.6342198874       -0.7163176732
 C          4.7563528163        1.1383020968        0.0002395600
 C          5.0547021682        0.8500660651       -1.3168580218
 C          6.3575267729        0.5113487913       -1.6486689303
 C          7.3317565606        0.4671375485       -0.6628977237
 C          7.0153408297        0.7614082952        0.6552814942
 C          5.7154386920        1.1015936337        0.9938442950
 H          5.4256299559        1.3427364959        2.0028727699
 H          7.7758940886        0.7260533445        1.4184579484
 H          8.3439736412        0.2017189330       -0.9242037854
 H          6.6048590476        0.2821637239       -2.6727486508
 H          4.2613750827        0.8912488904       -2.0462697591
 H          2.0117927781        0.6811462786        2.1879163815
 H          3.9265637729       -1.3755543304       -0.0794474818
 H          2.9471811338       -3.3130525729       -1.2592447012
 H          0.5553769249       -3.8200883491       -1.0477997080
 H         -1.5655559538       -2.5108663035        1.4753854854
 C         -1.8779091268       -3.5704416959       -0.3566768637
 C         -1.7560934970       -4.9480644040        0.2209713640
 C         -3.0935619508       -4.2752254046        0.1635181272
 H         -3.8238199829       -4.6338261430       -0.5461970513
 H         -3.5241208565       -3.9094198827        1.0843166255
 H         -1.5695518893       -5.7734322271       -0.4490134510
 H         -1.2784402049       -5.0442310393        1.1841393630
 H         -1.7900094950       -3.4527221109       -1.4305223950
