  62
        -98.93802527
 C         -1.2399930080       -1.4256688720        0.3103641016
 C         -1.7879438068       -0.4740177201        1.2041230293
 C         -3.0218304605        0.2104897533        0.7818900276
 C         -3.5184323069       -0.0297984463       -0.4456581834
 C         -4.7683185023        0.4747043714       -1.1365790951
 C         -5.5655141275        1.6383577486       -0.5546197540
 C         -4.8547510342        2.9905193815       -0.6160614780
 H         -4.8114600302        3.3120181372       -1.6597927271
 H         -5.4553689223        3.7197458138       -0.0680807837
 C         -3.4282123680        3.0143182083       -0.0722699007
 H         -2.7920300249        2.3522952325       -0.6645430716
 H         -3.0343044149        4.0260717555       -0.2048146190
 C         -3.2823739491        2.6520835295        1.4039952642
 H         -3.9173552739        3.3041764098        2.0074514976
 H         -2.2423872846        2.8443212446        1.6830767359
 C         -3.5989195459        1.1907171694        1.7625655235
 H         -3.1299621967        0.9726922853        2.7266731517
 H         -4.6693187668        1.0368319453        1.8771037018
 H         -6.4786974216        1.7197007732       -1.1503937173
 H         -5.8726233695        1.4122288926        0.4622587359
 H         -4.4640693952        0.7239599655       -2.1583338240
 H         -5.4312718281       -0.3941494054       -1.2166436632
 O         -2.9067883384       -0.8927962488       -1.3081201332
 C         -1.7580119126       -1.5946576632       -0.9727986232
 O         -1.3202881007       -2.3097734020       -1.8930481135
 H          0.7266057138        0.1284405405       -0.3943773665
 C          1.3466971701       -0.6800468987       -0.7503169059
 C          1.1007941114       -1.9727419934       -0.3062518540
 C          1.8761774228       -3.0053721860       -0.8160206114
 C          2.8658131983       -2.7393647987       -1.7473564368
 C          3.1216958579       -1.4474020638       -2.1685159967
 C          2.3477445983       -0.4069751424       -1.6661405417
 N          2.5671130596        0.9219225123       -2.0580994144
 S          2.3169585566        2.1530892857       -0.9563891645
 O          0.9077970909        2.4144573121       -0.8010852362
 O          3.1068632483        3.2534797471       -1.4679752948
 C          3.0291730113        1.5567393138        0.5676804460
 C          2.2318825445        1.2638382783        1.6547853805
 C          2.8223994188        0.7528621542        2.8002417586
 C          4.1921508037        0.5463920592        2.8401441721
 C          4.9821895005        0.8561069087        1.7431437088
 C          4.3971606837        1.3633670712        0.5951169663
 H          4.9789986441        1.6243958360       -0.2738669050
 H          6.0482256514        0.6999378234        1.7786365232
 H          4.6450068133        0.1437249917        3.7323486246
 H          2.2007884422        0.5126760411        3.6482874235
 H          1.1665654473        1.4265001786        1.5975438311
 H          3.3854995882        1.0746997819       -2.6280171004
 H          3.8990318981       -1.2437311409       -2.8887617501
 H          3.4537781731       -3.5521089745       -2.1458740514
 H          1.6938773451       -4.0201471624       -0.5033617887
 C          0.0243676550       -2.1484260273        0.7356562887
 H          0.3538250193       -1.5984537977        1.6345266554
 C         -0.1808566681       -3.5918529568        1.1698154367
 C         -1.5260874510       -4.0873903432        1.6073912887
 C         -0.9221369079       -4.5880221547        0.3312737062
 H         -0.5582917025       -5.6048665678        0.3033388647
 H         -1.3334535301       -4.2434178341       -0.6039695466
 H         -1.5767212165       -4.7562872492        2.4535325585
 H         -2.3582178491       -3.4009307362        1.5417965118
 H          0.6689549101       -3.9692162680        1.7302114015
 O         -1.2688553420       -0.2088476224        2.3220614802
