  62
        -98.94411200
 C          2.2028570595        1.2673286748       -0.1502035287
 C          2.6010733055        0.1735592250       -0.9560779774
 C          3.9792440373       -0.2930991761       -0.7561813727
 C          4.7789194132        0.3327632473        0.1261919670
 C          6.2134417148       -0.0119054165        0.4216514107
 C          6.3845917891       -1.1416527291        1.4463435803
 C          6.0323852083       -2.5402312956        0.9378475412
 H          6.5663712943       -2.7325110023        0.0067260110
 H          6.4019654820       -3.2528061817        1.6779477846
 C          4.5300348104       -2.7792339076        0.7306937338
 H          4.2510094246       -3.7431053974        1.1623090060
 H          3.9608914821       -2.0146418739        1.2646171201
 C          4.0853649420       -2.7936987276       -0.7319481319
 H          4.5437003758       -3.6416967362       -1.2458981993
 H          3.0008235289       -2.9295633475       -0.7585769271
 C          4.4215893988       -1.5126381012       -1.5066371920
 H          5.4904110869       -1.4674944124       -1.7147157770
 H          3.8796689380       -1.5342727620       -2.4553305505
 H          5.7787747151       -0.9105255399        2.3255282899
 H          7.4321756788       -1.1442664344        1.7560788554
 H          6.7251554052       -0.2776909782       -0.5037125292
 H          6.6733641020        0.8921542061        0.8265182052
 O          4.3644854603        1.3982868727        0.8621846764
 C          3.0661003170        1.8710472354        0.7648180550
 O          2.8061062427        2.8216488718        1.5299317225
 H         -1.1775692712        0.5715147844       -1.7486274220
 C         -1.1127022332        0.1914200561       -0.7416378938
 C         -0.1793841662        0.7139602333        0.1382109861
 C         -0.1203078996        0.1972016431        1.4303538249
 C         -0.9602449529       -0.8268061820        1.8228542156
 C         -1.8785008790       -1.3603121892        0.9348120177
 C         -1.9496939755       -0.8481543144       -0.3530738867
 N         -2.8807680331       -1.3816937666       -1.2580960566
 S         -4.4411310836       -1.6599045773       -0.7282637117
 O         -4.4924488758       -2.8876942561        0.0255447430
 O         -5.2579798236       -1.6153950723       -1.9204183977
 C         -4.8155118539       -0.2788459480        0.3377671409
 C         -5.0433886342       -0.4852132360        1.6827596400
 C         -5.2943387892        0.6087863458        2.4956995147
 C         -5.3093364081        1.8837525126        1.9524401860
 C         -5.0817811235        2.0746502576        0.5979070246
 C         -4.8308055959        0.9848177894       -0.2192175928
 H         -4.6571913880        1.0977991802       -1.2771953267
 H         -5.0965417557        3.0674421709        0.1776084471
 H         -5.5007518779        2.7345628909        2.5871982740
 H         -5.4738611494        0.4633782668        3.5487930228
 H         -5.0231167578       -1.4928965001        2.0645777571
 H         -2.8648816669       -0.9524522430       -2.1709464814
 H         -2.5279247204       -2.1732562620        1.2160327855
 H         -0.8976974983       -1.2192500216        2.8265256253
 H          0.6041530410        0.6084456157        2.1205421491
 C          0.7864244819        1.8097709321       -0.2415030804
 H          0.7171339850        2.6022889525        0.5165713109
 C          0.5321726691        2.4162583526       -1.6049503988
 C         -0.5646481530        3.4224573155       -1.7791835239
 C          0.8683314031        3.8582126336       -1.8314115610
 H          1.2874982016        4.1456618548       -2.7840664662
 H          1.2681819852        4.4127722350       -0.9949682824
 H         -1.1307463194        3.4172511939       -2.6984465024
 H         -1.1409883370        3.6862835559       -0.9055972992
 H          0.7318724788        1.7271063011       -2.4171949624
 O          1.8544505102       -0.3829256086       -1.8026476588
