  62
        -98.93475898
 C         -2.2693552801       -0.9816744883       -0.2123721092
 C         -3.5877015496       -1.2358621503        0.2317710637
 C         -4.6359197609       -0.3327126614       -0.2729456338
 C         -4.2932483026        0.6545960868       -1.1185737004
 C         -5.1908961806        1.7120731666       -1.6991100570
 C         -5.1528024841        2.9858132788       -0.8376677481
 C         -6.1456268991        3.0074148610        0.3240771984
 H         -5.9216070903        3.8914048101        0.9255403222
 H         -7.1565222556        3.1274738926       -0.0709887239
 C         -6.1190071104        1.7750948406        1.2322630834
 H         -5.0849539194        1.4868053804        1.4302219315
 H         -6.5648353285        2.0551515876        2.1886683685
 C         -6.8944080139        0.5818204381        0.6540595975
 H         -7.5903159675        0.2053858445        1.4065115462
 H         -7.5008942185        0.9252003291       -0.1837813734
 C         -6.0327187683       -0.6112162391        0.2118387046
 H         -6.5667833811       -1.1692659005       -0.5641172932
 H         -5.9002437119       -1.2971117361        1.0543072721
 H         -4.1346027437        3.1000795230       -0.4561823403
 H         -5.3599796845        3.8471379365       -1.4759954023
 H         -6.2052072626        1.3399436736       -1.8078244992
 H         -4.7931838648        1.9490226154       -2.6880883425
 O         -3.0109008408        0.8587476559       -1.5299265295
 C         -1.9680829020        0.0645246554       -1.0834891346
 O         -0.8505530660        0.3862054635       -1.5316294117
 O         -3.8762297826       -2.1705909405        1.0272049924
 C         -1.1408715095       -1.8595185428        0.3002411103
 C         -0.1774666378       -1.0075852008        1.0891081549
 C         -0.6571398748       -0.3422448750        2.2156292043
 C          0.1696173091        0.4777133459        2.9569893596
 C          1.4907590179        0.6567994084        2.5852222665
 C          1.9829887456       -0.0096106082        1.4698260330
 C          1.1518995382       -0.8450875055        0.7342966957
 H          1.5534263998       -1.3410630189       -0.1323319278
 N          3.3382925089        0.1245400340        1.1100928317
 S          3.7633308458        0.3324727224       -0.5122380833
 O          3.1352072615        1.5192118992       -1.0495569791
 O          3.5451696852       -0.9006836536       -1.2231318848
 C          5.5161119090        0.6088508953       -0.3215630122
 C          6.0155420127        1.8954848551       -0.3881606995
 C          7.3756151045        2.0975661026       -0.2122901386
 C          8.2082389518        1.0153724420        0.0289560267
 C          7.6925287982       -0.2707930202        0.0921832534
 C          6.3340194337       -0.4795049738       -0.0840516901
 H          5.8894695640       -1.4603610550       -0.0518748074
 H          8.3435382915       -1.1099357387        0.2771498957
 H          9.2661191435        1.1750299831        0.1656253133
 H          7.7791728380        3.0959593193       -0.2644427222
 H          5.3307608423        2.7045657274       -0.5861732233
 H          3.7999527431        0.8362109748        1.6627971941
 H          2.1362417983        1.3068168813        3.1568132368
 H         -0.2167966394        0.9892985524        3.8257742627
 H         -1.6936333651       -0.4749467330        2.4952559295
 H         -1.6161274117       -2.5704293181        0.9921402002
 C         -0.4970621920       -2.6356361422       -0.8273764861
 C          0.2335030865       -3.9102857879       -0.5323033485
 C         -1.0872505763       -3.9497717666       -1.2389803466
 H         -1.1053085403       -4.1991924292       -2.2893041623
 H         -1.9506609132       -4.2988818151       -0.6915614671
 H          1.1278162594       -4.1298924722       -1.0956319248
 H          0.2680185651       -4.2371874549        0.4959456276
 H         -0.1077578597       -1.9958791777       -1.6122287197
