  62
        -98.93691599
 C          2.4283130733        1.1883144036       -0.1930916196
 C          2.3505033447       -0.0689439411        0.4550508399
 C          3.6391708747       -0.6678312629        0.8351113502
 C          4.7846333046        0.0032540430        0.6218094478
 C          6.1698998219       -0.4684232350        0.9716025709
 C          6.8002652941       -1.3862917077       -0.0847559307
 C          6.2137910417       -2.7968480382       -0.1542920649
 H          6.8848656032       -3.3923871824       -0.7763065259
 H          6.2146008159       -3.2393263049        0.8422658021
 C          4.8000437377       -2.8672417661       -0.7486040529
 H          4.5847710457       -1.9430853829       -1.2902729735
 H          4.7496640600       -3.6810290364       -1.4755432215
 C          3.6920683788       -3.1083584791        0.2770346975
 H          2.7321964354       -3.1052053509       -0.2468887835
 H          3.8215937707       -4.0929223443        0.7320403697
 C          3.6252793656       -2.0584918929        1.3941487629
 H          4.4511705423       -2.1980166797        2.0913329735
 H          2.6834917961       -2.1899092358        1.9329391212
 H          6.7115612146       -0.9064462312       -1.0621860014
 H          7.8640268728       -1.4695637697        0.1492113238
 H          6.1512672945       -0.9787294015        1.9348523389
 H          6.7884392075        0.4269309409        1.0630709624
 O          4.8100136072        1.2429139385        0.0634921386
 C          3.6448271639        1.8530844522       -0.3708239736
 O          3.8179416905        2.9792995271       -0.8777023430
 O          1.2753854811       -0.6700562464        0.7135153569
 C          1.1887301342        1.9099794885       -0.6915309072
 C          0.0892699341        1.8432860430        0.3403891102
 C          0.3328789841        2.3709170444        1.6060455246
 C         -0.6376199784        2.3261590286        2.5871096000
 C         -1.8739954980        1.7632780529        2.3246031344
 C         -2.1340066440        1.2490097110        1.0596582793
 C         -1.1555066707        1.2943610614        0.0764191099
 H         -1.3718621375        0.8634720590       -0.8856738399
 N         -3.4078446987        0.7314415394        0.7640424348
 S         -3.6355215590       -0.4922140178       -0.3713414916
 O         -2.9237088701       -1.6925022407        0.0064669266
 O         -3.3672248576        0.0288349241       -1.6879942626
 C         -5.3923438900       -0.7367632276       -0.1775815604
 C         -6.2502804276        0.1878715304       -0.7427920812
 C         -7.6161856526        0.0237026015       -0.5777826354
 C         -8.0997846199       -1.0565925743        0.1456305482
 C         -7.2272537833       -1.9777457866        0.7048602995
 C         -5.8595402312       -1.8183000779        0.5442977235
 H         -5.1439310536       -2.5129587755        0.9542289467
 H         -7.6059501225       -2.8182187988        1.2639193209
 H         -9.1634553780       -1.1828064803        0.2720887161
 H         -8.2978600424        0.7364422690       -1.0131962530
 H         -5.8290748705        1.0058121107       -1.3034555991
 H         -3.9467761488        0.5386454366        1.5976499868
 H         -2.6309344978        1.7217451387        3.0932021809
 H         -0.4298305355        2.7277605142        3.5677530575
 H          1.3038144693        2.8017595024        1.8129699841
 H          1.4929204864        2.9660987730       -0.7875921027
 C          0.7351510793        1.4615713623       -2.0732878316
 C          1.6993523978        0.8864915981       -3.0661276234
 C          0.6480139387        0.0146078399       -2.4514922211
 H         -0.1858658353       -0.3054482311       -3.0602294566
 H          0.9436042321       -0.7127021339       -1.7115166523
 H          1.5950488105        1.1683250692       -4.1030423788
 H          2.7240332666        0.7522595261       -2.7505580377
 H         -0.0347895013        2.1119873562       -2.4781790475
