  62
        -98.93614420
 C         -2.4841107943       -0.9306717979        0.6005880721
 C         -2.8312705601        0.3211612752        1.1714842394
 C         -4.2161321085        0.7689091087        0.9807692416
 C         -5.0719033105       -0.0215074409        0.3080679061
 C         -6.4946695804        0.3311065449       -0.0138054491
 C         -6.5964743445        1.0368264684       -1.3734139946
 C         -5.6049346199        2.1871572520       -1.5486869937
 H         -4.5892981999        1.7845831906       -1.5616479093
 H         -5.7882056321        2.6274267492       -2.5311982344
 C         -5.7021973943        3.2785941843       -0.4735871172
 H         -5.6705896717        4.2549361545       -0.9616802645
 H         -6.6596623400        3.2054675319        0.0433750625
 C         -4.5696543761        3.2585714660        0.5548094200
 H         -3.6055991107        3.2368295924        0.0399084303
 H         -4.6132237353        4.1886875975        1.1278139734
 C         -4.6028756772        2.1004232108        1.5600176160
 H         -5.5883100282        2.0460772757        2.0272759664
 H         -3.8640052291        2.3137984674        2.3381376515
 H         -6.4093851602        0.3016695444       -2.1593858883
 H         -7.6149884137        1.4106585159       -1.4925839931
 H         -7.0782825789       -0.5902807789       -0.0477375439
 H         -6.8904310154        0.9723364769        0.7713394480
 O         -4.7143209130       -1.2247093718       -0.2031292355
 C         -3.4140735289       -1.7077298785       -0.0922270617
 O         -3.2474994185       -2.8106778935       -0.6420203133
 O         -2.0145817663        1.0313860819        1.8195982956
 C         -1.0456361727       -1.3782029266        0.7824219630
 C         -0.1754071193       -0.9201674913       -0.3600570961
 C         -0.5587986104       -1.1008301002       -1.6855290521
 C          0.2703126797       -0.6938298396       -2.7148521353
 C          1.4991061862       -0.1171499122       -2.4454926447
 C          1.8873931189        0.0755970849       -1.1248346842
 C          1.0444702106       -0.3169710244       -0.0940165841
 H          1.3525155177       -0.1470582649        0.9271452708
 N          3.1176111576        0.6754060618       -0.8155715147
 S          3.9374166079        0.1319062895        0.5584791769
 O          3.8739528296       -1.3101462051        0.6295738986
 O          3.4456538265        0.8498593919        1.7073717989
 C          5.5958077164        0.6661126139        0.1819595408
 C          5.9224971868        1.9946993345        0.3797818180
 C          7.2014120308        2.4237054563        0.0628052765
 C          8.1268664209        1.5227610153       -0.4434325704
 C          7.7849540537        0.1924380424       -0.6340337828
 C          6.5068353325       -0.2433337354       -0.3207786785
 H          6.1982721055       -1.2689312044       -0.4448401577
 H          8.5076942393       -0.5059995879       -1.0240086082
 H          9.1218676824        1.8593900978       -0.6881658546
 H          7.4718168989        3.4565214908        0.2123853797
 H          5.1734063111        2.6551594227        0.7847299453
 H          3.7296790601        0.7591391486       -1.6157230609
 H          2.1491189145        0.1881800470       -3.2512780023
 H         -0.0382520462       -0.8404259293       -3.7391020908
 H         -1.5061351212       -1.5735149709       -1.8978104586
 H         -0.6982473305       -0.8477796118        1.6846353737
 C         -0.8988969738       -2.8684798856        1.0573150256
 C         -0.3328509123       -3.8420521926        0.0724034728
 C          0.4612740339       -3.4609064686        1.2836219880
 H          0.5814745415       -4.1865856441        2.0740798637
 H          1.3210213590       -2.8205114249        1.1428254959
 H         -0.7801889587       -4.8231050508        0.0276003212
 H         -0.0102948754       -3.4684447974       -0.8864524984
 H         -1.6996477028       -3.2401927420        1.6892519024
