  62
        -98.93582241
 C          2.3766865596        0.4649216417        0.9092934831
 C          3.4244068222        1.0787446153        0.1775315582
 C          4.7333313567        0.4060058710        0.2480369623
 C          4.8691745978       -0.7143963270        0.9782711055
 C          6.1261516341       -1.5279259119        1.0810678264
 C          6.1680142386       -2.6229526009        0.0059360600
 C          5.8583083728       -2.1172717023       -1.4030989669
 H          5.9466819970       -2.9691990162       -2.0807664015
 H          4.8186417265       -1.7836855329       -1.4409787832
 C          6.7730361004       -0.9827973965       -1.8855466424
 H          7.6757880375       -0.9497516578       -1.2745778718
 H          7.0830347325       -1.1951545610       -2.9108997958
 C          6.1177909749        0.3994666587       -1.8956405749
 H          5.1654898233        0.3494303280       -2.4294019032
 H          6.7685950051        1.0802043213       -2.4508163520
 C          5.8658764963        1.0287303120       -0.5196487066
 H          6.7856819803        1.0098034673        0.0681750971
 H          5.5801042259        2.0724939037       -0.6796424185
 H          7.1577914917       -3.0829204613        0.0205245081
 H          5.4329070038       -3.3889153438        0.2637721846
 H          6.9874499653       -0.8705692745        0.9792482750
 H          6.1521352230       -1.9966959007        2.0661990486
 O          3.8445703606       -1.2673922460        1.6777102735
 C          2.5830188309       -0.6997846510        1.6536319663
 O          1.7363182948       -1.3128503682        2.3364140852
 H         -1.5342891542       -0.0113813548        1.0629522254
 C         -1.1535629206        0.0218430991        0.0524399351
 C          0.1266350994        0.4948008684       -0.1929308491
 C          0.5993740976        0.4985549304       -1.5016440463
 C         -0.1998394154        0.0465452033       -2.5357805480
 C         -1.4881188624       -0.3952805661       -2.2909048724
 C         -1.9672315811       -0.4088766838       -0.9863706596
 N         -3.2639207356       -0.8599892971       -0.6964506328
 S         -4.1100078981       -0.0630144259        0.5308020819
 O         -3.8638139073        1.3586920791        0.4517346527
 O         -3.8051290015       -0.6942377347        1.7902947853
 C         -5.7912093677       -0.4287088881        0.0635465993
 C         -6.5037067655        0.4975182537       -0.6746050768
 C         -7.7995952371        0.1928163352       -1.0605621400
 C         -8.3563757741       -1.0270790448       -0.7069234972
 C         -7.6289325404       -1.9461772611        0.0348650647
 C         -6.3331528719       -1.6477192258        0.4252881864
 H         -5.7332312024       -2.3255956046        1.0100355927
 H         -8.0662923985       -2.8921230480        0.3106876609
 H         -9.3649705874       -1.2618577341       -1.0083881689
 H         -8.3688392235        0.9065632887       -1.6338927338
 H         -6.0326271966        1.4360579931       -0.9188816503
 H         -3.8301295865       -0.9982051378       -1.5223318929
 H         -2.1155050429       -0.7330757535       -3.1017012014
 H          0.1791102956        0.0539636055       -3.5467858209
 H          1.5920736774        0.8728295561       -1.6998752401
 C          0.9600556657        1.0123564325        0.9510439432
 H          0.5217179539        0.6094547896        1.8791558392
 C          0.9063522750        2.5313400030        1.0582941187
 C          0.4776738188        3.4284822983       -0.0593266246
 C         -0.4180793629        3.2340617578        1.1248606172
 H         -0.5339773893        4.0467261577        1.8264741830
 H         -1.3129239687        2.6421471426        0.9903014730
 H          0.9978677094        4.3671746066       -0.1729625191
 H          0.1902000092        2.9756113126       -0.9948876541
 H          1.6891511547        2.9141405183        1.7060211016
 O          3.2979828626        2.1261615530       -0.5054663865
