  62
        -98.94627735
 C         -1.1407398405       -1.2989829096        0.0071779706
 C         -1.5984688501       -0.3717222498        0.9775524910
 C         -2.4005042001        0.7544834504        0.4830919115
 C         -2.6335591506        0.8607749907       -0.8375854584
 C         -3.4512563908        1.9434409809       -1.4791573579
 C         -4.9251007808        1.5330785310       -1.6021152374
 C         -5.5215401204        0.9852560309       -0.3054798073
 H         -6.5719816505        0.7594936710       -0.5011685770
 H         -5.0298650104        0.0411987608       -0.0598932577
 C         -5.4169783199        1.9385251806        0.8931364828
 H         -5.2263207399        2.9536149507        0.5430115129
 H         -6.3761464297        1.9502235206        1.4149903332
 C         -4.3548032495        1.5489809003        1.9226413424
 H         -4.4868642795        0.5014417603        2.2045033222
 H         -4.5153408691        2.1526277502        2.8197574725
 C         -2.8962957697        1.7518130903        1.4925163019
 H         -2.7564149097        2.7713041503        1.1265187020
 H         -2.2706349894        1.6162879700        2.3792694316
 H         -5.4983413309        2.4016444512       -1.9315673271
 H         -5.0059206212        0.7611756012       -2.3710850675
 H         -3.3635838304        2.8538377407       -0.8887731078
 H         -3.0463591711        2.1302920110       -2.4757135280
 O         -2.1802694611       -0.0422150792       -1.7410896787
 C         -1.4182263510       -1.1379002194       -1.3523979092
 O         -1.0739297514       -1.8660662792       -2.3029477695
 H          1.0141814691       -0.7237364096       -1.2024838101
 C          1.6857305593       -1.2333103398       -0.5301771304
 C          1.2000128995       -2.1508388900        0.3869049396
 C          2.1098748898       -2.8076913402        1.2107112691
 C          3.4640911297       -2.5482891703        1.1150896887
 C          3.9398825495       -1.6064951502        0.2190163887
 C          3.0411180293       -0.9428294200       -0.6055843808
 N          3.4738266990        0.0422616702       -1.5119638708
 S          2.6726761392        1.5141357202       -1.5140638402
 O          1.3780590790        1.3914030405       -2.1335662498
 O          3.5996365991        2.4249153803       -2.1514977704
 C          2.5090265699        1.9146852799        0.2148634199
 C          3.6015199002        2.4424254197        0.8761331496
 C          3.5147078107        2.6658211594        2.2403548397
 C          2.3510686409        2.3392451994        2.9213798000
 C          1.2636033806        1.8108455497        2.2437946403
 C          1.3395507601        1.6019481399        0.8760466303
 H          0.5058686898        1.1986713301        0.3226254105
 H          0.3594024708        1.5347355197        2.7635565706
 H          2.2881549413        2.4978766692        3.9863008901
 H          4.3552253109        3.0840384593        2.7702881294
 H          4.4867606400        2.6807593997        0.3090123693
 H          4.4735454191        0.1889990901       -1.5153828712
 H          4.9944819895       -1.3862769603        0.1568875883
 H          4.1570855999       -3.0694412005        1.7572567383
 H          1.7475999599       -3.5224821303        1.9329361591
 C         -0.2807340005       -2.4411590698        0.5099060701
 H         -0.5068023801       -2.5224177400        1.5831911702
 C         -0.6033051208       -3.7704588697       -0.1481679400
 C         -0.5313265707       -5.0421975998        0.6404438097
 C         -1.8623313908       -4.4903498196        0.2290672403
 H         -2.4203090911       -4.9902323294       -0.5481133196
 H         -2.4836207205       -4.0392118697        0.9893124306
 H         -0.1680486310       -5.9305717998        0.1473264594
 H         -0.2680718603       -4.9780305801        1.6850680496
 H         -0.3107591912       -3.8060992395       -1.1902642701
 O         -1.3415204696       -0.4797305900        2.2072816809
