  62
        -98.94063422
 C         -1.5912589094       -0.5758375392        0.7814327300
 C         -2.9513729694       -0.6915813992        1.1713241700
 C         -3.9373235293       -0.7425952808        0.0868858000
 C         -3.5257913292       -0.6672844722       -1.1912538201
 C         -4.4056397990       -0.7226088140       -2.4105202701
 C         -5.0265648094        0.6281346053       -2.7918787618
 C         -6.1432843797        1.1148615260       -1.8674009525
 H         -6.6308738399        1.9532165653       -2.3689058236
 H         -6.8879087594        0.3264783659       -1.7529025316
 C         -5.6642583300        1.5786402779       -0.4845454330
 H         -6.1409963604        2.5290755380       -0.2340715942
 H         -4.5871684001        1.7606479082       -0.5145245331
 C         -5.9716197898        0.6043626792        0.6528499181
 H         -5.5568147200        1.0150583604        1.5769013677
 H         -7.0531413198        0.5181813689        0.7786351081
 C         -5.3888151793       -0.8012826709        0.4563264199
 H         -5.4707778392       -1.3413311698        1.4027507405
 H         -5.9535881190       -1.3397220420       -0.3044153095
 H         -4.2328837097        1.3781902755       -2.8319823626
 H         -5.4367539393        0.5254978439       -3.7992662117
 H         -5.1960346488       -1.4584966841       -2.2597894993
 H         -3.7725446988       -1.0548827848       -3.2361359996
 O         -2.2158392092       -0.5453413322       -1.5276217001
 C         -1.2178547093       -0.4701445507       -0.5598317001
 O         -0.0771530193       -0.3278755809       -1.0343661601
 O         -3.3247074595       -0.7498577379        2.3729673500
 C         -0.5586329096       -0.4785902675        1.8911885900
 C          0.2699114400        0.7685161526        1.7177800586
 C         -0.3017304604        1.9942694028        2.0496141870
 C          0.4144160292        3.1681230729        1.9220524457
 C          1.7150773592        3.1401981028        1.4511694959
 C          2.2910892797        1.9257894925        1.1011723774
 C          1.5721736601        0.7456316325        1.2409147388
 H          2.0273000704       -0.1895945177        0.9591463799
 N          3.6190990698        1.8715753324        0.6296105676
 S          3.8656852501        1.3304743306       -0.9474215917
 O          5.1526045000        1.8917947006       -1.3117668323
 O          2.7620914201        1.6893533292       -1.8061276223
 C          4.0473810907       -0.4325808592       -0.8095201996
 C          3.0794105811       -1.2733288601       -1.3194290086
 C          3.2830344815       -2.6431393700       -1.2391636770
 C          4.4342166616       -3.1415099289       -0.6491220162
 C          5.3910471213       -2.2801184779       -0.1326046772
 C          5.2004789208       -0.9109944581       -0.2172507089
 H          5.9249002205       -0.2043482574        0.1520222704
 H          6.2830483414       -2.6717431470        0.3292349134
 H          4.5845235920       -4.2083147987       -0.5914251449
 H          2.5363385418       -3.3129118907       -1.6358100862
 H          2.1821079610       -0.8486067009       -1.7416416093
 H          4.1172841695        2.7438765527        0.7485307566
 H          2.2810343289        4.0543340628        1.3468792748
 H         -0.0406640012        4.1104911730        2.1879239145
 H         -1.3205891805        2.0130430429        2.4124349969
 H         -1.1649685897       -0.3470971466        2.8029820798
 C          0.2766727708       -1.7288598469        2.1160322216
 C         -0.3616134587       -3.0836649172        2.0428200432
 C          0.6624968513       -2.6806311881        1.0267942728
 H          1.6413501914       -3.1345097777        1.0770469935
 H          0.3364476313       -2.4604717994        0.0234377025
 H         -0.0941830285       -3.8225686563        2.7828273441
 H         -1.3963806086       -3.1260696280        1.7345741931
 H          1.0049490207       -1.5815172057        2.9079149815
