  62
        -98.93375023
 C          2.5844124037        1.2606943079        0.3070762275
 C          2.4963732861        0.1636487838       -0.5825063800
 C          3.6988559354       -0.6862802404       -0.6982690609
 C          4.7919439770       -0.4005683870        0.0317660236
 C          6.1579221463       -1.0527461328        0.0803144425
 C          6.3797036825       -2.4463462840       -0.5021540043
 C          5.6513935873       -3.5713788645        0.2322101023
 H          6.1066300321       -3.6950391852        1.2181251597
 H          5.8072380506       -4.4981543917       -0.3243270959
 C          4.1532105650       -3.3627203461        0.4396474974
 H          3.9889861305       -2.4999584296        1.0886705357
 H          3.7638427432       -4.2382138658        0.9663608461
 C          3.3331957172       -3.1865360259       -0.8370623014
 H          2.2771981097       -3.2096799009       -0.5545472541
 H          3.5183248848       -4.0250335825       -1.5112078086
 C          3.5748817880       -1.8757147774       -1.6060417504
 H          2.7009098650       -1.6904519752       -2.2372990615
 H          4.4404875848       -1.9523055708       -2.2597962865
 H          7.4524561041       -2.6453171197       -0.4293522345
 H          6.1291906939       -2.4579333508       -1.5588257404
 H          6.4465944852       -1.0564341549        1.1361925044
 H          6.8384310016       -0.3561281240       -0.4220921820
 O          4.8250787745        0.6652999348        0.8854380894
 C          3.7348581531        1.4969826879        1.0617190789
 O          3.9099756138        2.3950517944        1.9094898450
 O          1.4755794335       -0.1060248474       -1.2654395930
 C          1.4145500411        2.1999568515        0.5473359424
 C          0.1455707350        1.4048535395        0.7318612905
 C          0.0286113765        0.5871031777        1.8525664254
 C         -1.1104098300       -0.1654809291        2.0633998393
 C         -2.1587508758       -0.1207713633        1.1608801419
 C         -2.0536797355        0.6922283771        0.0414365753
 C         -0.9101273807        1.4543726925       -0.1635171256
 H         -0.8345071877        2.0647182325       -1.0500887259
 N         -3.1036831465        0.7262648460       -0.8895390899
 S         -4.6764193109        0.9072085278       -0.3443984130
 O         -5.4001059987        1.4770019445       -1.4602748948
 O         -4.7248046051        1.6471998295        0.8956284542
 C         -5.2401464280       -0.7613978471       -0.0823182086
 C         -5.1270006200       -1.6594136417       -1.1254447747
 C         -5.5733689233       -2.9582241088       -0.9415535326
 C         -6.1255170466       -3.3342970720        0.2739677726
 C         -6.2352146823       -2.4200601071        1.3103747372
 C         -5.7893837352       -1.1194389225        1.1331557527
 H         -5.8494397966       -0.3764984526        1.9126108301
 H         -6.6647784591       -2.7144162174        2.2544914493
 H         -6.4722194449       -4.3459807546        0.4141279519
 H         -5.4888828367       -3.6722161667       -1.7450059318
 H         -4.6944601031       -1.3284227521       -2.0548675746
 H         -2.9203829485        1.3015875797       -1.6981533658
 H         -3.0487200589       -0.7086793061        1.3158460097
 H         -1.1831402964       -0.7969831006        2.9360462191
 H          0.8509821519        0.5454936773        2.5545961220
 H          1.6415687880        2.6930047875        1.5071538721
 C          1.2835620391        3.3109060718       -0.4839884992
 C          2.4984884689        3.8982498071       -1.1362335946
 C          1.5297122271        3.0920704583       -1.9454572812
 H          0.9002612990        3.6120096192       -2.6535323727
 H          1.8188306340        2.1028433820       -2.2626493266
 H          2.5342385590        4.9667646064       -1.2867222640
 H          3.4555914173        3.4593564371       -0.8943866700
 H          0.4946993467        4.0103827236       -0.2218200961
