  62
        -98.94503015
 C         -0.7921390491       -1.5819213916       -1.1267284186
 C         -2.0978968288       -1.7576122722       -0.6029402780
 C         -3.0296857298       -0.6407786632       -0.7815660788
 C         -2.6161015310        0.4742296266       -1.4090403199
 C         -3.4275033721        1.7220222957       -1.6277259808
 C         -3.4314193225        2.6611930268       -0.4131893216
 C         -4.3052208818        2.2046709471        0.7560488491
 H         -4.4193604323        3.0618932776        1.4228687683
 H         -5.2983281517        1.9402302260        0.3898677496
 C         -3.7181012905        1.0359979084        1.5601638899
 H         -3.8181722704        1.2458496792        2.6282917298
 H         -2.6468775605        0.9561853391        1.3569598497
 C         -4.3863736895       -0.3151768424        1.3030355714
 H         -3.8510452187       -1.0739686815        1.8797789919
 H         -5.4190879394       -0.2857351230        1.6596405016
 C         -4.3914634995       -0.7549970338       -0.1660958682
 H         -4.6858210787       -1.8070532041       -0.2051102772
 H         -5.1144394302       -0.1676800749       -0.7321289786
 H         -2.4041705125        2.7837344580       -0.0589855920
 H         -3.7903168634        3.6364715662       -0.7514613924
 H         -4.4525160719        1.4586686546       -1.8907836802
 H         -2.9751598928        2.2471155054       -2.4719033814
 O         -1.3747173312        0.5893501172       -1.9426002504
 C         -0.4190792803       -0.4107834619       -1.7878484697
 O          0.6794792893       -0.1265482314       -2.2979798103
 O         -2.4664451377       -2.8080127320       -0.0092518770
 C          0.2151329719       -2.6731910104       -0.8034853179
 C          0.7891563321       -2.3794901487        0.5607630017
 C          0.8427680432       -3.3406736378        1.5621167525
 C          1.2971451033       -3.0084411162        2.8273396521
 C          1.6757068623       -1.7114709957        3.1250835308
 C          1.6285766411       -0.7442239466        2.1268934300
 C          1.2211619411       -1.0928249481        0.8500454604
 H          1.1976792702       -0.3386002888        0.0804107697
 N          1.9877085701        0.5880865439        2.3723113986
 S          1.1960129888        1.8157191925        1.5475471478
 O          1.4058710280        2.9875636034        2.3757366867
 O         -0.1844874210        1.4845509211        1.2808805485
 C          2.1137733582        2.0268752419        0.0389572173
 C          1.4604995174        2.5314053404       -1.0662295130
 C          2.1800164169        2.7485391799       -2.2298222634
 C          3.5337048671        2.4580553211       -2.2669826735
 C          4.1766139879        1.9543959126       -1.1466784632
 C          3.4638445484        1.7391495031        0.0211018072
 H          3.9303240090        1.3428730443        0.9078787074
 H          5.2293840081        1.7237790935       -1.1812935533
 H          4.0891590767        2.6202979807       -3.1773607438
 H          1.6758865863        3.1293700687       -3.1033582636
 H          0.4004762573        2.7235155795       -1.0064130228
 H          2.1597609402        0.8244673149        3.3383732784
 H          1.9947374923       -1.4450779745        4.1211390905
 H          1.3323956941       -3.7625950355        3.5988852628
 H          0.5016701940       -4.3439562982        1.3534294535
 H         -0.3749099373       -3.6001471709       -0.7225199069
 C          1.2737234718       -2.8926375005       -1.8713671580
 C          2.6973475914       -2.4578980692       -1.7175976688
 C          2.3515573427       -3.9136177094       -1.6535805174
 H          2.6335298930       -4.5513406099       -2.4774661269
 H          2.3919632734       -4.3936211885       -0.6873970270
 H          3.1979519009       -2.0762141195       -2.5936822393
 H          2.9813852513       -1.9577150881       -0.8050817894
 H          0.8577605114       -2.8260850018       -2.8710442079
