  62
        -98.93813179
 C          1.9876120311        1.3947338804        0.3022575784
 C          2.6241838620        0.7136579840       -0.7621972249
 C          3.7697779237       -0.1373041190       -0.3952506418
 C          4.1477828235       -0.2210192420        0.8917515435
 C          5.3028514561       -0.9929721281        1.4784761206
 C          5.5167824199       -2.4297108433        0.9799518583
 C          4.2372729193       -3.1777235141        0.5771544142
 H          4.2234066727       -4.1496942059        1.0741107786
 H          3.3572174716       -2.6278958886        0.9158491910
 C          4.1370284734       -3.4216370034       -0.9308445204
 H          3.4381872560       -4.2429593576       -1.1078286704
 H          5.1149498116       -3.7403858835       -1.2982686028
 C          3.6545527458       -2.2321413126       -1.7608353047
 H          2.5918114803       -2.0539571429       -1.5724763163
 H          3.7490744907       -2.4991978271       -2.8161345981
 C          4.3992546165       -0.9089783721       -1.5186981167
 H          5.4596293905       -1.0787621478       -1.3483285112
 H          4.2824219882       -0.2911200042       -2.4130835586
 H          6.2023835187       -2.4233705714        0.1337549739
 H          6.0162122787       -2.9720776014        1.7844772933
 H          6.2174640538       -0.4169185475        1.3117233018
 H          5.1203147000       -1.0025300974        2.5557019164
 O          3.5014020858        0.4519745094        1.8861372165
 C          2.4055450090        1.2569355149        1.6237565832
 O          1.8944579504        1.7787734752        2.6363248021
 H         -0.0627322108       -0.1287483953        0.7615256042
 C         -0.6161272069        0.2255606553       -0.1001579085
 C         -0.3073165943        1.4707060298       -0.6350232149
 C         -1.0391300203        1.9201889492       -1.7259073915
 C         -2.0250704122        1.1248970643       -2.2854697493
 C         -2.3090097204       -0.1249788256       -1.7683245003
 C         -1.5983926209       -0.5747718840       -0.6619974330
 N         -1.8901211305       -1.8358234398       -0.1155029089
 S         -3.4987169271       -2.2560684686        0.0749971765
 O         -3.5176139270       -3.1866632764        1.1818933624
 O         -4.0209994462       -2.7542894661       -1.1729840362
 C         -4.3332011556       -0.7414200687        0.5145142506
 C         -3.9237238986       -0.0802433301        1.6555948376
 C         -4.5394083034        1.1129212929        1.9963684104
 C         -5.5497983278        1.6218324050        1.1944790600
 C         -5.9536253016        0.9431910771        0.0554250120
 C         -5.3393449751       -0.2495236533       -0.2916396646
 H         -5.6192457036       -0.8080034285       -1.1699550354
 H         -6.7409131142        1.3402967444       -0.5647035543
 H         -6.0244209448        2.5527574612        1.4615097629
 H         -4.2254447075        1.6414466150        2.8823023562
 H         -3.1380399547       -0.5031820004        2.2615238939
 H         -1.3494830752       -2.0655407060        0.7048073380
 H         -3.0575955161       -0.7645185872       -2.2069831129
 H         -2.5764563793        1.4818279150       -3.1416669334
 H         -0.8303087297        2.8895469717       -2.1470226847
 C          0.7860383496        2.2785924944        0.0226160442
 H          0.4194180639        2.6125545221        1.0045358291
 C          1.2063507174        3.4930363383       -0.7789616912
 C          0.4742201475        4.7913481355       -0.6259333025
 C          1.8548320255        4.6388508334       -0.0639173745
 H          2.6715487905        5.1532566551       -0.5477366381
 H          1.9679781182        4.5534579343        1.0073626576
 H         -0.3526674791        4.8211256174        0.0672150790
 H          0.3446486345        5.4162866244       -1.4966238010
 H          1.5922774711        3.2311276961       -1.7572979243
 O          2.2606465653        0.8120073384       -1.9621042824
