  62
        -98.93364796
 C         -1.9657816995       -1.3193882695        0.4419472133
 C         -1.8405116113       -0.2847798822       -0.5187471106
 C         -2.6543844178        0.9201932606       -0.2780612945
 C         -3.3776383808        1.0154351420        0.8509179865
 C         -4.3142592022        2.1371467604        1.1995806566
 C         -5.6333180709        1.9847874264        0.4150014412
 C         -5.8945042866        3.0954868968       -0.6025774326
 H         -6.7228028783        2.7702238982       -1.2354879429
 H         -6.2176399841        3.9934873405       -0.0719358793
 C         -4.7081123701        3.4793721408       -1.4922131524
 H         -5.1088096357        4.0713283930       -2.3178017552
 H         -4.0312263737        4.1334653012       -0.9403775272
 C         -3.8974054985        2.3126474232       -2.0711259036
 H         -4.5060582169        1.4094728721       -2.1212705989
 H         -3.6203264738        2.5673906456       -3.0959605493
 C         -2.5893830593        2.0041838891       -1.3177961392
 H         -2.1993592412        2.9198376771       -0.8639173604
 H         -1.8417506517        1.6560967205       -2.0369055337
 H         -5.6182044126        1.0189290537       -0.0944117917
 H         -6.4705403933        1.9578540676        1.1140613361
 H         -3.8419470601        3.0916268770        0.9773577877
 H         -4.5008752702        2.0823490889        2.2724604480
 O         -3.3938198106        0.0407503527        1.7983385348
 C         -2.6922700392       -1.1400212643        1.6204841101
 O         -2.7852115414       -1.9371997741        2.5769421782
 O         -1.1016472962       -0.3542805102       -1.5333862125
 C         -1.2130300709       -2.6336040488        0.3079678766
 C          0.2346922956       -2.3491601011       -0.0041696506
 C          0.8687350017       -2.7367795471       -1.1764509490
 C          2.1956988681       -2.4097090384       -1.3954465736
 C          2.9157583085       -1.6940072037       -0.4558389287
 C          2.2889044116       -1.2995907927        0.7187874366
 C          0.9637993811       -1.6335169697        0.9384643789
 H          0.4734369994       -1.3146696804        1.8519915333
 N          3.0210655932       -0.5448917219        1.6731833407
 S          3.1227510958        1.0949285945        1.2865742844
 O          3.6078972632        1.7407097346        2.4879998631
 O          1.8696628446        1.5947882435        0.7631737889
 C          4.3813961079        1.1363980736        0.0322424130
 C          5.6953431472        0.9517979122        0.4167537595
 C          6.6821000458        0.9527670942       -0.5561036833
 C          6.3386125822        1.1358441440       -1.8875398013
 C          5.0144880307        1.3210299133       -2.2558588901
 C          4.0218249315        1.3211243694       -1.2880722234
 H          2.9781472469        1.4526195693       -1.5267830135
 H          4.7490226804        1.4612509559       -3.2913056363
 H          7.1075231043        1.1339674581       -2.6439318746
 H          7.7127348356        0.8093477205       -0.2743531209
 H          5.9136927346        0.8185536177        1.4631936666
 H          2.6237536224       -0.6151578496        2.6011271714
 H          3.9509662482       -1.4433401622       -0.6197924385
 H          2.6750269293       -2.7126813750       -2.3135858020
 H          0.3138094787       -3.2715239004       -1.9295828057
 H         -1.2539848761       -3.0822400745        1.3146130126
 C         -1.8556341364       -3.6378818341       -0.6362193952
 C         -3.3425529659       -3.6671623008       -0.8247006742
 C         -2.4519478301       -3.2512734587       -1.9547152932
 H         -2.3329315190       -3.9311541226       -2.7857440745
 H         -2.4212603871       -2.2105948477       -2.2337535190
 H         -3.8353868169       -4.6261713001       -0.8792264360
 H         -3.9224293309       -2.9060130097       -0.3221690970
 H         -1.3593124564       -4.6024613990       -0.5912070619
