  62
        -98.93161920
 C         -1.5404257603       -1.6054878893        0.5216702995
 C         -2.0607243504       -0.9964013089       -0.6437772202
 C         -3.0758246001        0.0609631114       -0.4423154996
 C         -3.4423799597        0.3954095311        0.8068947006
 C         -4.4406644793        1.4321775512        1.2566617712
 C         -5.7737709895        1.4788730118        0.4938674615
 C         -5.9296378294        2.7230867221       -0.3822585481
 H         -5.5279760990        3.5821942418        0.1591146721
 H         -6.9944558793        2.9076519024       -0.5409292878
 C         -5.2669694897        2.6374930923       -1.7562703383
 H         -5.3259344496        3.6277993325       -2.2141474580
 H         -5.8358581501        1.9535406127       -2.3899875983
 C         -3.8049257398        2.1860708119       -1.7513115988
 H         -3.2655483495        2.6489106816       -0.9257189588
 H         -3.3426706300        2.5449725621       -2.6737046888
 C         -3.6330387002        0.6602133419       -1.7053190893
 H         -2.9385595405        0.3461825719       -2.4911087895
 H         -4.5841891704        0.1715377622       -1.9362736992
 H         -6.5790431293        1.4836522018        1.2302366117
 H         -5.8911143199        0.5768677220       -0.1048982487
 H         -4.6241463191        1.2087759010        2.3100177211
 H         -3.9627179790        2.4143334111        1.2252384113
 O         -2.8904566396       -0.1971279294        1.9040242203
 C         -1.9495134799       -1.2017771796        1.7958639698
 O         -1.5587639597       -1.6562603500        2.8885905295
 H          0.4558656694       -1.0176561093       -1.3425102308
 C          1.2131164395       -1.3126606797       -0.6313255311
 C          0.8823200195       -2.2040282000        0.3803727287
 C          1.8667473096       -2.5737834705        1.2888222284
 C          3.1529395297       -2.0735872308        1.1769560582
 C          3.4815832897       -1.1930161506        0.1621044084
 C          2.5006385696       -0.8088934101       -0.7437080213
 N          2.8160485996        0.1015158202       -1.7675294411
 S          3.6872475501        1.4634759198       -1.3402254809
 O          3.2999857601        2.4827820702       -2.2894809105
 O          5.0925579800        1.1431385394       -1.3030195213
 C          3.1293466406        1.8897624795        0.3014002394
 C          4.0383707509        1.9627768689        1.3369591892
 C          3.5838245713        2.2755669587        2.6080738394
 C          2.2334650514        2.5036495090        2.8211445398
 C          1.3323460311        2.4284510495        1.7698691900
 C          1.7816377507        2.1195771898        0.4965018498
 H          1.1020560505        2.0565154702       -0.3390275001
 H          0.2812117812        2.6012034198        1.9391376403
 H          1.8768975217        2.7400303588        3.8112132399
 H          4.2813745415        2.3357948782        3.4277494192
 H          5.0783872708        1.7721948587        1.1275445289
 H          2.0294024095        0.3355444605       -2.3557183108
 H          4.4794305998       -0.7994221808        0.0550574783
 H          3.9081321498       -2.3718350912        1.8877011679
 H          1.6149790197       -3.2490147607        2.0933294483
 C         -0.5227693206       -2.7361620596        0.4957594389
 H         -0.6122446805       -3.2178329099        1.4818502688
 C         -0.8477639012       -3.7947522492       -0.5511744813
 C         -0.0231236215       -4.0434266991       -1.7747913716
 C         -0.0031118715       -5.0307290494       -0.6492878419
 H         -0.4914022018       -5.9840728092       -0.7829728420
 H          0.8871129686       -5.0706956298       -0.0395999621
 H          0.8546545086       -3.4381016593       -1.9368451216
 H         -0.5458585918       -4.2986603387       -2.6841437715
 H         -1.9188909512       -3.9306855089       -0.6635657911
 O         -1.7070161308       -1.2965938986       -1.8145824903
