  62
        -98.93674744
 C         -1.2650513991       -0.5177525491        0.7945479207
 C         -2.1994559888       -0.7253418803       -0.2501285693
 C         -2.9435858689        0.4667277191       -0.6888726206
 C         -2.6570419493        1.6646812497       -0.1506499817
 C         -3.3688959595        2.9459774092       -0.4734846831
 C         -4.5568745197        3.1770451099        0.4712538764
 C         -5.4774455095        1.9648414999        0.6130118373
 H         -4.9298698295        1.1580591405        1.1053285983
 H         -6.2941452597        2.2530825604        1.2782482969
 C         -6.0549495491        1.4484823285       -0.7121507523
 H         -7.1201254591        1.2499408284       -0.5764280123
 H         -5.9638707291        2.2172808478       -1.4803049730
 C         -5.4206186588        0.1512054181       -1.2171323409
 H         -6.0399556185       -0.2356462528       -2.0306571006
 H         -5.4256838488       -0.5943087511       -0.4181886902
 C         -3.9879945087        0.2727562979       -1.7521709807
 H         -3.7358796484       -0.6690675926       -2.2485953697
 H         -3.9365855887        1.0737148972       -2.4929259314
 H         -5.1290700598        4.0304002295        0.1027441554
 H         -4.1678560900        3.4299214310        1.4602727662
 H         -3.7117512692        2.9132748782       -1.5059708732
 H         -2.6597389696        3.7685768895       -0.3643522038
 O         -1.7021711195        1.8370095008        0.7982597183
 C         -0.9850954494        0.7588250414        1.2852457195
 O         -0.1374524697        1.0624145824        2.1507754394
 O         -2.4149710085       -1.8363835809       -0.7959258083
 C         -0.4163770790       -1.6604893685        1.3474300620
 C          0.3961834014       -2.1877055194        0.1896661627
 C          0.1520476317       -3.3276376502       -0.5646696463
 C          0.9268021020       -3.6094943711       -1.6784314258
 C          1.9325531920       -2.7555334513       -2.0882017364
 C          2.1842014016       -1.6065420306       -1.3459858275
 C          1.4431773413       -1.3573583096       -0.2049902179
 H          1.6418266410       -0.4623798990        0.3646549613
 N          3.1854656015       -0.7012416908       -1.7259759482
 S          2.9889000811        0.9454956595       -1.4739854098
 O          1.5966997711        1.3301835792       -1.4586711205
 O          3.8071041212        1.5577151686       -2.5016120002
 C          3.7707815507        1.2235871211        0.1012891601
 C          3.0426786204        1.6471870220        1.1939327395
 C          3.6999135701        1.8435728733        2.3995379595
 C          5.0641873501        1.6187699137        2.4906777600
 C          5.7831171205        1.1986140727        1.3810354806
 C          5.1327898208        0.9988795215        0.1751421106
 H          5.6534859610        0.6830718607       -0.7133934990
 H          6.8447181505        1.0258873330        1.4542002210
 H          5.5681474799        1.7728432647        3.4318143900
 H          3.1307914299        2.1651915141        3.2572360091
 H          1.9777868004        1.8048252418        1.1067092591
 H          3.6175942217       -0.8954196015       -2.6173475479
 H          2.5091916022       -2.9648576721       -2.9763739461
 H          0.7207643223       -4.5002600017       -2.2528442850
 H         -0.6602693382       -3.9879814901       -0.3221315658
 H          0.2992915608       -1.1682116777        2.0249344217
 C         -1.2311282990       -2.5847310577        2.2387994327
 C         -2.2243524287       -3.6085655684        1.7828415635
 C         -0.9417585788       -4.0439537775        2.4258466542
 H         -0.9874622489       -4.4444018565        3.4278069646
 H         -0.1778279786       -4.4912585180        1.8106832048
 H         -3.1368295988       -3.6997680080        2.3555570734
 H         -2.3753582085       -3.7386189994        0.7244065136
 H         -1.5169945693       -2.0426231869        3.1380984521
