  62
        -98.93906148
 C          2.4728662786        1.0053017974        0.3721878866
 C          2.7506293533       -0.1735346362        1.1147553849
 C          4.0854798308       -0.7552502986        0.9439798277
 C          4.9760027342       -0.1486034860        0.1388301547
 C          6.3896180269       -0.5949112303       -0.1184318529
 C          6.5163217268       -1.6740258289       -1.2023770980
 C          6.0305865941       -3.0653439699       -0.7943001734
 H          6.3767580518       -3.7626837974       -1.5596859661
 H          6.5025718395       -3.3527651399        0.1456775709
 C          4.5059373363       -3.1913996774       -0.6664341962
 H          4.0256518720       -2.3527965866       -1.1761670598
 H          4.1721105109       -4.1027803244       -1.1675471716
 C          3.9920893391       -3.2530242309        0.7721852576
 H          2.9002648377       -3.3024389120        0.7443630539
 H          4.3581337111       -4.1623890612        1.2541268830
 C          4.3885148939       -2.0492470067        1.6370060046
 H          5.4458947689       -2.1034586699        1.8956488275
 H          3.7997664317       -2.0789423276        2.5572272330
 H          5.9711508107       -1.3435642762       -2.0894078087
 H          7.5733582404       -1.7453215914       -1.4685809927
 H          6.8336402377       -0.9555654779        0.8097940077
 H          6.9390637858        0.2897889399       -0.4470123890
 O          4.6831294019        0.9908957587       -0.5375044795
 C          3.4295356386        1.5829048502       -0.4634189113
 O          3.3258965851        2.5995658530       -1.1778036302
 O          1.9197799348       -0.7099902825        1.8970581790
 C          1.0864863986        1.6000713661        0.5426083548
 C          0.1512415636        1.2113982002       -0.5781947499
 C          0.3991607403        1.5779970385       -1.8971657869
 C         -0.4992338110        1.2457737046       -2.8944278961
 C         -1.6672061117        0.5659013816       -2.5965416749
 C         -1.9202790239        0.1891716855       -1.2829401739
 C         -1.0061512696        0.5044834497       -0.2871966269
 H         -1.2112915763        0.1949662854        0.7274784407
 N         -3.0862198055       -0.5173795637       -0.9487695451
 S         -3.8088552057       -0.1994734787        0.5445588258
 O         -3.7934104761        1.2214583452        0.8087291990
 O         -3.2011925631       -1.0416743744        1.5442158772
 C         -5.4740851669       -0.7506919048        0.2241180558
 C         -6.4383538265        0.1759126946       -0.1249529388
 C         -7.7228528417       -0.2654466000       -0.4015363787
 C         -8.0185965277       -1.6183525827       -0.3282773178
 C         -7.0402349502       -2.5363569667        0.0242068547
 C         -5.7542860065       -2.1019190044        0.3035193873
 H         -4.9642207841       -2.7760895109        0.5909182066
 H         -7.2746980576       -3.5869487293        0.0832939364
 H         -9.0188076434       -1.9593337058       -0.5439139393
 H         -8.4864885610        0.4458732491       -0.6719668040
 H         -6.1639869141        1.2179675065       -0.1608353256
 H         -3.7625524776       -0.5413848045       -1.6996332407
 H         -2.3742922879        0.3225423858       -3.3750873772
 H         -0.2946926334        1.5336355083       -3.9147337950
 H          1.3016724390        2.1220189435       -2.1294656266
 H          0.6930534288        1.1477316041        1.4640513552
 C          1.0804526484        3.1080286845        0.7131059218
 C         -0.1530704917        3.7629603943        1.2562934193
 C          1.0900510799        3.6947290825        2.0908281041
 H          1.6486762325        4.6030921845        2.2597477264
 H          1.1057976551        3.0098180692        2.9263980822
 H         -0.4476320895        4.7190507929        0.8513741096
 H         -0.9851380618        3.1251452388        1.5191883826
 H          1.6310278877        3.6305864946       -0.0580956973
