  62
        -98.94878475
 C          1.8005440340        1.3507944145       -0.2474106962
 C          2.8864175914        0.6840688627        0.3645282830
 C          3.2795881854       -0.5899555033       -0.2446497691
 C          2.6207007524       -1.0438678407       -1.3268305510
 C          2.8911969795       -2.3358048218       -2.0480750791
 C          2.1855439668       -3.5400771843       -1.4088143857
 C          2.8088774937       -4.0353050185       -0.1030565981
 H          2.3731084462       -5.0138025424        0.1087801426
 H          3.8821152226       -4.1762324878       -0.2397706542
 C          2.5540831290       -3.1161982131        1.0999198869
 H          2.2496169677       -3.7195629613        1.9593571086
 H          1.7164882146       -2.4512932713        0.8715153157
 C          3.7637478481       -2.2866985802        1.5336614121
 H          3.4580031740       -1.6442283968        2.3639540687
 H          4.5504796311       -2.9524689185        1.8965269355
 C          4.3495938877       -1.3916608674        0.4336130304
 H          5.0471165075       -0.6905742831        0.8991972094
 H          4.8920655455       -1.9957608051       -0.2929977481
 H          2.2060640813       -4.3581115269       -2.1329440773
 H          1.1402647184       -3.2745823771       -1.2282193228
 H          2.5109112570       -2.2124505261       -3.0643055783
 H          3.9649876631       -2.5195286023       -2.0958317755
 O          1.6082134285       -0.3539963867       -1.9100579906
 C          1.1295197119        0.8172162902       -1.3487878940
 O          0.1325191504        1.2938992173       -1.9251436419
 H          0.3609543037        0.4620990913        1.6628836655
 C         -0.4556171025        1.1319120271        1.4210189892
 C         -0.1834876066        2.3409190253        0.7913267792
 C         -1.2469342981        3.1857564880        0.5029479912
 C         -2.5470059947        2.8060288767        0.7934312759
 C         -2.8157233259        1.5678233613        1.3484392548
 C         -1.7554387599        0.7297979778        1.6648298111
 N         -2.0327578213       -0.5908289143        2.1314521092
 S         -1.9120621208       -1.6753746342        0.8357743403
 O         -2.2454123690       -2.9752274433        1.3806721127
 O         -0.6183712870       -1.5939313523        0.1923573185
 C         -3.2055295005       -1.1024559295       -0.2368603075
 C         -2.9133338580       -0.1988405191       -1.2391695051
 C         -3.9534775921        0.2847911300       -2.0186698068
 C         -5.2527964733       -0.1372002820       -1.7831416596
 C         -5.5266345294       -1.0470991818       -0.7724844984
 C         -4.4943341291       -1.5333948933        0.0125974269
 H         -4.6537582874       -2.2412735276        0.8092857046
 H         -6.5380805144       -1.3739316007       -0.5925056385
 H         -6.0563414898        0.2466295640       -2.3918113368
 H         -3.7354355935        0.9942323675       -2.8007416054
 H         -1.8932183441        0.1186425742       -1.3983098958
 H         -1.3819637081       -0.8934340206        2.8454020647
 H         -3.8254458806        1.2392582989        1.5328456485
 H         -3.3626342703        3.4706809610        0.5547984377
 H         -1.0584836752        4.1350389479        0.0285981816
 C          1.2469974232        2.6117108779        0.3958089795
 H          1.8462523770        2.7683991746        1.3051171167
 C          1.4104513413        3.8086123029       -0.5153432006
 C          1.5310697217        5.1865008582        0.0624557571
 C          2.7279532948        4.5214989074       -0.5459255043
 H          3.0959285966        4.8830925543       -1.4942138648
 H          3.5035155110        4.1567831245        0.1117476766
 H          1.4979284848        5.2827924757        1.1371064596
 H          1.0795254492        6.0099270305       -0.4697130876
 H          0.8841756081        3.6882884613       -1.4554996985
 O          3.4866197661        1.1256559429        1.3837556319
