  62
        -98.93294880
 C         -2.0361344370       -1.1369921932        0.2246289503
 C         -2.5038931755       -0.1157684468        1.0844586323
 C         -2.8067612472        1.1915433478        0.4741846406
 C         -2.6013479938        1.3548790477       -0.8447467801
 C         -2.8180660914        2.5844484203       -1.6907105592
 C         -4.1139339493        3.3730710353       -1.4457825549
 C         -3.8842246384        4.7261499024       -0.7705989135
 H         -2.9834184406        5.1757442017       -1.1933108340
 H         -4.7222876380        5.3836422413       -1.0119305068
 C         -3.7582166072        4.6791249316        0.7511010308
 H         -3.4570251780        5.6733584583        1.0889689724
 H         -4.7366411524        4.4692345541        1.1884721441
 C         -2.7600064070        3.6547758800        1.2952499475
 H         -1.8554966706        3.6349278288        0.6871793623
 H         -2.4607274507        3.9773164196        2.2950022253
 C         -3.3380927287        2.2368176325        1.4170056946
 H         -4.4283316921        2.2694233162        1.3310507946
 H         -3.1257602334        1.8390412206        2.4144583316
 H         -4.5793487139        3.5555230244       -2.4156787021
 H         -4.8086314105        2.7710032489       -0.8622947721
 H         -1.9515025876        3.2394621115       -1.5679467660
 H         -2.7897582727        2.2253500841       -2.7221272658
 O         -2.1106716562        0.3552746028       -1.6304767844
 C         -1.7935629780       -0.8956193100       -1.1278639961
 O         -1.3325503520       -1.6785324518       -1.9795406505
 O         -2.6615386036       -0.2876341698        2.3249480596
 C         -1.6723199248       -2.4750622427        0.8437119796
 C         -0.2956541498       -2.8789233575        0.3784274989
 C         -0.0023139868       -4.0920111448       -0.2286149328
 C          1.2837878818       -4.3600491880       -0.6654481598
 C          2.2927832267       -3.4275714323       -0.5185707069
 C          2.0110963782       -2.2137348835        0.1003090832
 C          0.7313382405       -1.9599529726        0.5601423863
 H          0.5191378456       -1.0108844255        1.0332067203
 N          3.0208472868       -1.2520079973        0.2873854208
 S          2.6024701379        0.3821650160        0.2689255241
 O          2.0737194418        0.7394216153        1.5627223845
 O          1.7687248477        0.6898192516       -0.8721619748
 C          4.2218559301        1.1030708949        0.0692593545
 C          5.0346496671        1.2204916661        1.1811011868
 C          6.3095095462        1.7414256799        1.0269759891
 C          6.7487194636        2.1328061879       -0.2292190635
 C          5.9213134147        2.0106400343       -1.3353704636
 C          4.6453879676        1.4889069357       -1.1882950508
 H          3.9638780019        1.3806321746       -2.0171008411
 H          6.2638631196        2.3180989328       -2.3102510697
 H          7.7413052595        2.5378839390       -0.3467536145
 H          6.9545301144        1.8399122268        1.8850682414
 H          4.6452890437        0.9102949502        2.1366557577
 H          3.8341949661       -1.4267072457       -0.2875002564
 H          3.2886322769       -3.6299527348       -0.8824565261
 H          1.4978458827       -5.3028608460       -1.1457495977
 H         -0.7842911132       -4.8158844676       -0.3881358482
 H         -1.6139785486       -2.2655272184        1.9258699247
 C         -2.7222754500       -3.5614650227        0.6687771520
 C         -4.1627288604       -3.2141200712        0.4434761399
 C         -3.3648820042       -3.8481463859       -0.6540920417
 H         -3.5747281420       -4.8767757923       -0.9086485582
 H         -3.0663918787       -3.2404966158       -1.4936218675
 H         -4.9164042108       -3.8045973239        0.9424844770
 H         -4.4155039955       -2.1674905593        0.3527095920
 H         -2.5322500427       -4.4147327080        1.3127032182
