  62
        -98.94102892
 C          1.5674318898        0.1550054205       -0.8183595995
 C          2.8715326700        0.3111389207       -1.3548405391
 C          3.9514277198       -0.3864742798       -0.6488809893
 C          3.6687854895       -1.1143326705        0.4463373502
 C          4.6544000892       -1.9073139110        1.2611290099
 C          5.4062953891       -1.0788068217        2.3117184706
 C          6.4619769893       -0.1237728315        1.7532736514
 H          7.1330389894       -0.6720230911        1.0912401412
 H          7.0556216891        0.2281557480        2.5993950117
 C          5.8872105495        1.0928588290        1.0142860220
 H          6.4043030695        1.9969921088        1.3437247226
 H          4.8335490295        1.2141023889        1.2765632618
 C          6.0139524398        1.0282955899       -0.5078800680
 H          7.0694506999        1.0409918400       -0.7887845178
 H          5.5432576000        1.9202423302       -0.9294333976
 C          5.3534829499       -0.2011390596       -1.1454575589
 H          5.9487215098       -1.0925416598       -0.9480924093
 H          5.3065707701       -0.0428565290       -2.2257668288
 H          5.9031349289       -1.7806583522        2.9855350203
 H          4.6778925290       -0.5139361320        2.8980415508
 H          4.0804285291       -2.6790806813        1.7783227493
 H          5.3711979393       -2.3925213607        0.5980048598
 O          2.4093481194       -1.2269460707        0.9407284298
 C          1.3301787795       -0.5794049002        0.3455424000
 O          0.2552511794       -0.7497234605        0.9465771297
 H         -2.1357537602        0.4493642307       -0.6397530601
 C         -1.6711474102        1.2999197803       -0.1715648095
 C         -0.3774625901        1.6581896004       -0.5121416390
 C          0.2036420798        2.7535394700        0.1214919718
 C         -0.4960025003        3.4700455695        1.0727909921
 C         -1.7883924304        3.1095017194        1.4113550516
 C         -2.3745387004        2.0132468598        0.7891961008
 N         -3.6590684505        1.6007141097        1.1495618602
 S         -4.6160721003        0.6251579203        0.2082527494
 O         -4.5991481400        1.0335090412       -1.1782131403
 O         -5.9116451705        0.6724570800        0.8539391992
 C         -3.9471621105       -1.0178309798        0.3676166586
 C         -4.1692947604       -1.9095436492       -0.6632146520
 C         -3.6951870805       -3.2058466793       -0.5449803927
 C         -3.0080417308       -3.5856215700        0.5973569472
 C         -2.7943860609       -2.6788089307        1.6231499878
 C         -3.2710961108       -1.3827302606        1.5134488285
 H         -3.1054897609       -0.6567129510        2.2915086190
 H         -2.2495128411       -2.9722196412        2.5057532078
 H         -2.6328046009       -4.5931115501        0.6861194867
 H         -3.8578483204       -3.9123813888       -1.3434098731
 H         -4.6968469401       -1.5676007086       -1.5398385219
 H         -4.1647821806        2.1807839793        1.7994317805
 H         -2.3356802605        3.6641201790        2.1581608718
 H         -0.0337337303        4.3176060892        1.5562468427
 H          1.2166203099        3.0304854801       -0.1378612378
 C          0.4336222500        0.8837207310       -1.5179704593
 H          0.9417456102        1.6090645813       -2.1755040988
 C         -0.4171591898        0.0052592416       -2.4221630700
 C          0.1914460502       -1.1441183580       -3.1669689806
 C         -0.7958710700       -1.4009209886       -2.0701331610
 H         -1.7856149700       -1.7405026183       -2.3389781214
 H         -0.4421600202       -1.8002312692       -1.1329594911
 H          1.2325208102       -1.3628503782       -2.9783805505
 H         -0.1138871896       -1.3157859174       -4.1880980308
 H         -1.1650835697        0.5854174620       -2.9558794798
 O          3.1216099402        1.0034311113       -2.3776167587
