  62
        -98.93500517
 C         -2.0953992153       -0.8823172833        0.2068064267
 C         -2.9663668331       -0.2334339871        1.1166938558
 C         -3.7245164543        0.9198069806        0.6035725368
 C         -3.5130995543        1.3353468875       -0.6565801844
 C         -4.1370145136        2.5024879796       -1.3804897546
 C         -5.6399654604        2.7393524868       -1.1814336815
 C         -6.4786126492        1.4656815232       -0.9995194855
 H         -7.3164551422        1.4897225265       -1.6986913379
 H         -5.8791825627        0.5860740302       -1.2405047333
 C         -7.0495014216        1.3236054123        0.4134721784
 H         -7.4258114774        2.2961449489        0.7379649132
 H         -7.8996703782        0.6380829460        0.3814857459
 C         -6.0764160734        0.7886109157        1.4634079672
 H         -6.5670868302        0.8471765367        2.4378426136
 H         -5.8696273434       -0.2681639065        1.2730192288
 C         -4.7262902094        1.5190741378        1.5485066495
 H         -4.3224814473        1.3623887784        2.5526377752
 H         -4.8442796111        2.5876275068        1.3857540077
 H         -5.7955317351        3.3930472851       -0.3243980646
 H         -5.9905236833        3.2846467573       -2.0593418828
 H         -3.9312993732        2.3216824651       -2.4384960657
 H         -3.5902074287        3.4076116733       -1.0991932168
 O         -2.6134389323        0.7249456523       -1.4781798108
 C         -1.8854692162       -0.3895735903       -1.0815042883
 O         -1.1116712626       -0.8200450716       -1.9556205076
 O         -3.0961757120       -0.5941224758        2.3172706352
 C         -1.3157041055       -2.0832012388        0.7132066254
 C          0.1458844706       -1.9203401283        0.3808698395
 C          0.8582041306       -2.7918098498       -0.4310062398
 C          2.1921506850       -2.5520002725       -0.7121661101
 C          2.8435000305       -1.4504924890       -0.1889287532
 C          2.1395048052       -0.5704986249        0.6229006680
 C          0.8054364705       -0.8149445331        0.9054369757
 H          0.2535982110       -0.1230231716        1.5314092129
 N          2.7957086015        0.5496508732        1.1686360841
 S          3.5921379473        1.5804104756        0.1056458747
 O          3.6410673089        2.8551866342        0.7900099821
 O          2.9813971295        1.5774967554       -1.2035531136
 C          5.2387507452        0.9082962605        0.0185517155
 C          5.7725815253        0.5545808371       -1.2050784629
 C          7.0585496790        0.0386271493       -1.2508409839
 C          7.7836428086       -0.1123024508       -0.0787391889
 C          7.2337693031        0.2506015369        1.1418953570
 C          5.9492610445        0.7677639761        1.1946879060
 H          5.4860852189        1.0652494425        2.1205385616
 H          7.8009533682        0.1317423505        2.0509484505
 H          8.7834260230       -0.5150788690       -0.1171764560
 H          7.4872053352       -0.2436584536       -2.1990024878
 H          5.1676205315        0.6842509407       -2.0885360151
 H          2.2127614393        1.0870156690        1.7948943612
 H          3.8806085556       -1.2593306602       -0.4111272409
 H          2.7320501323       -3.2323530635       -1.3529713329
 H          0.3618558368       -3.6428452656       -0.8671475980
 H         -1.4195642725       -2.0274672203        1.8101631091
 C         -1.8893105800       -3.4286962496        0.2965046996
 C         -3.3539032819       -3.5876616878        0.0208150256
 C         -2.3638817840       -3.7094737816       -1.0965459727
 H         -2.1803054275       -4.6902733823       -1.5105695667
 H         -2.2969398015       -2.9115060141       -1.8190576130
 H         -3.8502599352       -4.4796474978        0.3723691313
 H         -3.9689051846       -2.7001800251        0.0627505745
 H         -1.4087918543       -4.2495966681        0.8199343951
