  62
        -98.94352343
 C         -1.8224182282       -1.1086821434        0.4702486723
 C         -2.7672277978       -1.0274664325       -0.5819307362
 C         -4.0630336061       -0.4239577953       -0.2326228649
 C         -4.2703251065        0.0279381942        1.0169977679
 C         -5.5206173379        0.7113636385        1.4877954408
 C         -5.4221544528        2.2335338685        1.3149389756
 C         -4.9526884909        2.6688905709       -0.0733473694
 H         -4.9513284615        3.7610409718       -0.0883838314
 H         -3.9190327486        2.3457788361       -0.2190061141
 C         -5.8151377881        2.1427160388       -1.2291261715
 H         -6.7850409470        1.8187067056       -0.8498662869
 H         -5.9979003384        2.9605775296       -1.9293307068
 C         -5.1776553684        1.0052454234       -2.0291364633
 H         -5.7635479442        0.8618604026       -2.9409092639
 H         -4.1670043215        1.2914531909       -2.3314825834
 C         -5.1016986290       -0.3507303292       -1.3163134603
 H         -6.0858412244       -0.6167754883       -0.9253815391
 H         -4.8122535589       -1.0991734296       -2.0596592667
 H         -6.4014444627        2.6686531820        1.5226217919
 H         -4.7151288085        2.6213343666        2.0521320847
 H         -6.3711816678        0.3263289772        0.9287252384
 H         -5.6597158463        0.4833546137        2.5459688802
 O         -3.3294620254       -0.0428274477        1.9934174894
 C         -2.0858853212       -0.5937625732        1.7417457645
 O         -1.3082652913       -0.5706980464        2.7184891291
 O         -2.5578333531       -1.4377857651       -1.7521242066
 C         -0.4368981455       -1.6993027587        0.2578385914
 C          0.3930536012       -0.7054841302       -0.5172991375
 C          0.5748234950       -0.7711436592       -1.8925893087
 C          1.3411642553        0.1812513518       -2.5428388071
 C          1.9512448175        1.2035317740       -1.8382402834
 C          1.7727665089        1.2768587574       -0.4629375277
 C          0.9955129745        0.3304055328        0.1857346146
 H          0.8469937677        0.3928504246        1.2565332097
 N          2.4467354761        2.2826019461        0.2676895685
 S          4.1205017923        2.1304926982        0.2125906974
 O          4.6155595909        2.7680507049        1.4119339659
 O          4.6009069021        2.6670235771       -1.0351904834
 C          4.3894623882        0.3673842472        0.2650274681
 C          4.1975233565       -0.2853776231        1.4664473357
 C          4.2916934564       -1.6670284912        1.5015699555
 C          4.5640416289       -2.3691626488        0.3373077855
 C          4.7576068319       -1.6987364100       -0.8603717682
 C          4.6680283214       -0.3167383841       -0.9008007559
 H          4.8091312286        0.2425823796       -1.8107216462
 H          4.9693353664       -2.2482757129       -1.7631157014
 H          4.6263146211       -3.4458568504        0.3651038621
 H          4.1423199861       -2.1904122715        2.4325962887
 H          3.9868924185        0.2934782631        2.3519034171
 H          2.1466316655        2.3298053669        1.2317451180
 H          2.5709749773        1.9393952959       -2.3249583591
 H          1.4703848144        0.1226150138       -3.6127188576
 H          0.0996272879       -1.5586520275       -2.4532902735
 H          0.0034042973       -1.7832877146        1.2606320138
 C         -0.4648454203       -3.0761421530       -0.3706396973
 C          0.7959880468       -3.8863448436       -0.3690112658
 C         -0.3509340430       -4.2820232870        0.5102969152
 H         -0.9203352912       -5.1623543499        0.2522108950
 H         -0.2613257051       -4.1186525009        1.5745221756
 H          1.0177093888       -4.4974661427       -1.2300321452
 H          1.6652725671       -3.4451186787        0.0957330240
 H         -1.1176708924       -3.1485188998       -1.2303390111
