  62
        -98.94687196
 C          1.2462556129        1.2169529990        0.0888727886
 C          2.0187516708        0.7125405369        1.1607064838
 C          2.6886644013       -0.5724702121        0.9199520146
 C          2.5042320967       -1.1988448137       -0.2569458236
 C          3.1742366207       -2.4812142783       -0.6557343810
 C          4.5000379482       -2.2115592205       -1.3814236835
 C          5.4160930325       -1.2293969901       -0.6515185675
 H          6.3329022512       -1.1413490075       -1.2384637227
 H          4.9461993195       -0.2433277748       -0.6404272075
 C          5.7676335747       -1.6375954708        0.7859170328
 H          5.5674919471       -2.6999988889        0.9298627953
 H          6.8379039854       -1.4863128061        0.9417265298
 C          5.0432365686       -0.8344879894        1.8678847314
 H          5.1675122025        0.2342602533        1.6754116845
 H          5.5193114046       -1.0505560447        2.8281704154
 C          3.5451287028       -1.1251073087        2.0244569711
 H          3.3889877549       -2.2002221828        2.1348252482
 H          3.2066611787       -0.6337288440        2.9416473644
 H          5.0188468686       -3.1622349840       -1.5174304106
 H          4.2773555173       -1.8010834503       -2.3688318559
 H          3.3517815723       -3.0851246811        0.2319554734
 H          2.5094661266       -3.0243195153       -1.3283804395
 O          1.7186147068       -0.7042840200       -1.2454227675
 C          1.0686909779        0.5120941659       -1.1027998284
 O          0.3798993443        0.8459424026       -2.0824837431
 H         -0.8793218493        0.7547474491        1.6088956165
 C         -1.5193899621        1.3104641071        0.9342313459
 C         -0.9619881573        2.3121178063        0.1476336550
 C         -1.7949019000        3.0198581137       -0.7074536962
 C         -3.1438948967        2.7150033421       -0.7844082674
 C         -3.6914814475        1.7092585696       -0.0097365190
 C         -2.8679693646        1.0048332448        0.8594302055
 N         -3.4135989112       -0.0305466653        1.6516856430
 S         -4.0051495131       -1.3538333536        0.8102392961
 O         -5.1804825598       -0.9528122040        0.0807122315
 O         -4.1901865814       -2.3886225038        1.8024655596
 C         -2.7051908336       -1.8119444917       -0.3204694281
 C         -2.6628133715       -1.2366608078       -1.5743447203
 C         -1.6244320276       -1.5700279290       -2.4284598141
 C         -0.6518734160       -2.4667253961       -2.0156186200
 C         -0.7034037944       -3.0292799180       -0.7496225560
 C         -1.7364288402       -2.6959090261        0.1106751470
 H         -1.8169964388       -3.1177891819        1.1000722868
 H          0.0588757501       -3.7213215758       -0.4277768051
 H          0.1555956982       -2.7176112330       -2.6851710723
 H         -1.5671897622       -1.1188181160       -3.4053323264
 H         -3.4390003601       -0.5466446737       -1.8623293729
 H         -2.7738097920       -0.3560158761        2.3634047712
 H         -4.7349470100        1.4462102665       -0.0731236889
 H         -3.7775877367        3.2678164510       -1.4611906196
 H         -1.3876802442        3.8034183958       -1.3246565566
 C          0.5245952104        2.5424410687        0.2579085169
 H          0.7466952385        2.8701735728        1.2842936191
 C          1.0591452188        3.5748359380       -0.7110405014
 C          0.9714713665        5.0339683652       -0.3803504664
 C          2.2973828284        4.3366593801       -0.3487414571
 H          3.0152530188        4.5542443747       -1.1253123086
 H          2.7450092811        4.1296816555        0.6125488618
 H          0.7810214690        5.7341208526       -1.1796083741
 H          0.5201423520        5.3070121484        0.5615153570
 H          0.9423306848        3.2750972767       -1.7461673485
 O          2.1354295961        1.3042710320        2.2691409594
