  62
        -98.94054823
 C         -1.8349210859       -0.7488065038        0.6647312357
 C         -2.1256585190        0.5183423800        0.0988824543
 C         -3.5336559907        0.9396432554        0.1708986297
 C         -4.4427296248        0.1631432871        0.7849606464
 C         -5.9062902022        0.4688400172        0.9522269031
 C         -6.7656331076        0.0925359142       -0.2625521217
 C         -6.5999970720        0.9986871998       -1.4832701333
 H         -7.4106825730        0.7572403335       -2.1736402709
 H         -6.7283475037        2.0389483485       -1.1822925384
 C         -5.2619132022        0.8344591198       -2.2174112978
 H         -4.7952635029       -0.1066484147       -1.9173407568
 H         -5.4419428739        0.7729219462       -3.2930623613
 C         -4.2697113189        1.9748618259       -1.9887255030
 H         -3.3467792553        1.7399667774       -2.5253772901
 H         -4.6729793014        2.9004542378       -2.4055468667
 C         -3.9138159023        2.2167096632       -0.5158864409
 H         -4.7479667718        2.6926318902       -0.0008054712
 H         -3.0501223152        2.8852816331       -0.4759959619
 H         -6.5430103157       -0.9398744541       -0.5421185881
 H         -7.8106364983        0.1326231183        0.0532859184
 H         -6.0362964356        1.5277634829        1.1777086756
 H         -6.2490326877       -0.1137194683        1.8101791358
 O         -4.1137833584       -1.0221742110        1.3634688131
 C         -2.8180494074       -1.5070971425        1.3096791522
 O         -2.6656319305       -2.6089038588        1.8735729589
 O         -1.2781787609        1.2709712232       -0.4455826430
 C         -0.4356416335       -1.3433863021        0.6665264329
 C          0.5655903648       -0.3276483729        1.1526375073
 C          0.7135781021       -0.1028665733        2.5172309978
 C          1.6311981841        0.8183763549        2.9898131535
 C          2.4165628268        1.5406733452        2.1080396959
 C          2.2616216031        1.3345372488        0.7452912333
 C          1.3530212141        0.3985755357        0.2732039661
 H          1.2367764780        0.2554391212       -0.7899074054
 N          3.0846786192        2.0543470538       -0.1575203281
 S          4.6400417026        1.4409798463       -0.2611078143
 O          5.2937140743        1.6260493670        1.0089204805
 O          5.2545740794        2.0810441011       -1.4019428184
 C          4.3997421357       -0.2982931622       -0.5791884362
 C          4.2820630866       -0.7277857569       -1.8859728960
 C          3.9863771088       -2.0592419769       -2.1301564492
 C          3.7997266771       -2.9302397221       -1.0674113453
 C          3.9187095617       -2.4826953400        0.2396328019
 C          4.2195649778       -1.1534482911        0.4896520870
 H          4.3194576778       -0.7673332670        1.4909334939
 H          3.7683598621       -3.1612684773        1.0639550562
 H          3.5587981861       -3.9644819942       -1.2581162021
 H          3.8946884561       -2.4120287952       -3.1449730752
 H          4.4336021180       -0.0172660758       -2.6829147367
 H          2.6856786657        2.1051440489       -1.0850503247
 H          3.1497553586        2.2515152765        2.4531504290
 H          1.7364677823        0.9755359575        4.0526272221
 H          0.0968510133       -0.6616806970        3.2079538181
 H         -0.4780522314       -2.1566719901        1.4078548614
 C         -0.0141960901       -1.9787118426       -0.6514548283
 C         -0.9835110375       -2.8077548445       -1.4381597602
 C         -0.4985462777       -1.5005609657       -1.9855956257
 H          0.1948874431       -1.5189009901       -2.8139098827
 H         -1.1820000511       -0.6666062843       -2.0092191057
 H         -0.6323329908       -3.7214023204       -1.8927975939
 H         -1.9983475739       -2.8637810578       -1.0711961113
 H          1.0097566398       -2.3384760034       -0.6097404955
