  62
        -98.93711023
 C          1.7940912803        0.8635424089        0.1005916020
 C          2.3390749901       -0.4398678110        0.0219044398
 C          3.7754841200       -0.5553435518        0.3233440500
 C          4.4666550401        0.5473413174        0.6650041422
 C          5.9471013901        0.6059889667        0.9137299627
 C          6.7043330204        0.5945653090       -0.4296902271
 C          7.5627466303       -0.6494928307       -0.6593306492
 H          7.8661493506       -0.6479265389       -1.7084592691
 H          8.4686638101       -0.5724664420       -0.0544214588
 C          6.8968832000       -1.9904321112       -0.3354762018
 H          7.5132528599       -2.7691288505       -0.7899006530
 H          6.9226443196       -2.1629524831        0.7415121879
 C          5.4524944301       -2.1589335600       -0.8245049524
 H          5.3319516100       -3.1844372794       -1.1798972243
 H          5.2542598004       -1.5043088085       -1.6736320813
 C          4.3787663698       -1.9309364218        0.2562080977
 H          3.5332654798       -2.5956701813        0.0546181262
 H          4.7828419895       -2.2021379937        1.2355064373
 H          5.9728716907        0.6866988306       -1.2353714872
 H          7.3504853206        1.4715287290       -0.4910793954
 H          6.1497176501        1.5296692757        1.4560659744
 H          6.2505262298       -0.2357909244        1.5320243612
 O          3.9002566703        1.7793372374        0.7488896843
 C          2.5578684504        1.9709887481        0.4667717942
 O          2.1689928506        3.1506452680        0.5825536163
 H         -1.7677869996       -0.5994299587       -0.9001096416
 C         -1.5633704399       -0.5608021206        0.1563538086
 C         -0.5420968099        0.2324269983        0.6543215703
 C         -0.3145805403        0.2416191858        2.0289279304
 C         -1.0682617006       -0.5454251056        2.8763039287
 C         -2.0770622406       -1.3490360045        2.3736901870
 C         -2.3217263603       -1.3563100320        1.0067153069
 N         -3.3340807203       -2.1669059409        0.4704999352
 S         -4.3287180599       -1.5745270785       -0.7322977140
 O         -5.5098371500       -2.4078797384       -0.6664794358
 O         -3.6406743395       -1.5546223663       -1.9975782038
 C         -4.7231301497        0.0867029206       -0.2155212711
 C         -4.2953399093        1.1613898919       -0.9662807090
 C         -4.5817723692        2.4438185212       -0.5254289668
 C         -5.2849668695        2.6275553792        0.6546103733
 C         -5.7134791499        1.5364246179        1.3955992413
 C         -5.4305732000        0.2527873586        0.9592544890
 H         -5.7592664503       -0.6173529423        1.5038152974
 H         -6.2642651201        1.6833716163        2.3106199814
 H         -5.5025160494        3.6269982586        0.9969313451
 H         -4.2534812389        3.2933300422       -1.1031188252
 H         -3.7499093291        0.9750963235       -1.8766738892
 H         -3.8537463506       -2.6985429220        1.1530458541
 H         -2.6609176109       -1.9738218756        3.0322686657
 H         -0.8713802109       -0.5340905176        3.9377225788
 H          0.4758002997        0.8675528950        2.4208951717
 C          0.3290444705        1.0926327098       -0.2275153079
 H          0.1259351406        2.1465063194        0.0129565839
 C          0.0996396308        0.8780660525       -1.7090067384
 C         -0.9496494388        1.6616780340       -2.4356011972
 C          0.5009219213        1.9595953841       -2.6652393063
 H          0.9460154415        1.6767715558       -3.6074633667
 H          0.9109438213        2.8655874933       -2.2425869946
 H         -1.5229989789        2.3743636930       -1.8625717261
 H         -1.5033703887        1.1709824455       -3.2226258683
 H          0.2767688707       -0.1468950270       -2.0154915202
 O          1.6633274100       -1.4571311304       -0.2842151622
