  62
        -98.93648278
 C          2.5906715924        1.0680410901        0.1730298021
 C          3.1166931213        0.2690857436        1.2198071548
 C          4.5083312219       -0.1671866883        1.0695993648
 C          5.2132127998        0.2194005476       -0.0090717066
 C          6.6533591100       -0.1119811547       -0.2928465179
 C          6.8629562210       -1.4803067045       -0.9554176861
 C          6.6475911078       -2.6858066154       -0.0395876617
 H          7.0361829334       -3.5606965169       -0.5645783704
 H          7.2389513001       -2.5615623905        0.8681001005
 C          5.1805167001       -2.9447560139        0.3309744796
 H          4.5285354328       -2.4068056921       -0.3613888951
 H          4.9574704674       -4.0080234511        0.2165021101
 C          4.8088538526       -2.5560455620        1.7620854477
 H          3.7412935799       -2.7459023322        1.9013313956
 H          5.3573901721       -3.1851568307        2.4667003479
 C          5.0779661820       -1.0856764924        2.1080470068
 H          6.1485750504       -0.9157447287        2.2209086051
 H          4.5845489096       -0.8610203047        3.0568527595
 H          6.1986186825       -1.5558489874       -1.8194607813
 H          7.8910578416       -1.5098062894       -1.3236129493
 H          7.0206314195        0.6594573858       -0.9731120849
 H          7.2288240830       -0.0626210980        0.6320096306
 O          4.6816488825        1.0006216437       -0.9847216925
 C          3.3593623441        1.4283791505       -0.9354889521
 O          3.0184329534        2.1049955647       -1.9236932364
 O          2.4524018981       -0.0530644521        2.2426521253
 C          1.1578012270        1.5343759715        0.3164249912
 C          0.1643677237        0.7434364020       -0.5074628017
 C          0.5357897623       -0.0490955199       -1.5846091383
 C         -0.4180518427       -0.7434335188       -2.3094092906
 C         -1.7577990669       -0.6615905888       -1.9801183613
 C         -2.1430483253        0.1237466587       -0.9007306155
 C         -1.1823900565        0.8125580387       -0.1724131491
 H         -1.4865828885        1.4151376224        0.6710495705
 N         -3.5040132185        0.2368196149       -0.5658216243
 S         -4.4491749227       -1.1644781972       -0.5913376615
 O         -3.7964263497       -2.2168662051        0.1553263657
 O         -4.7770342516       -1.4715922703       -1.9604846180
 C         -5.9032221432       -0.5945527167        0.2663814118
 C         -6.0252678172       -0.8293754206        1.6228418917
 C         -7.1475651583       -0.3581103956        2.2858229233
 C         -8.1209852491        0.3386988717        1.5856557162
 C         -7.9841784287        0.5661662271        0.2242094154
 C         -6.8652967666        0.0968476347       -0.4451802556
 H         -6.7202616732        0.2418685764       -1.5028678895
 H         -8.7449546033        1.1056796748       -0.3164868990
 H         -8.9932647450        0.7039753413        2.1043641235
 H         -7.2582452852       -0.5357552053        3.3434637825
 H         -5.2486082753       -1.3837625073        2.1252852029
 H         -3.6407335262        0.7435635192        0.2986827770
 H         -2.5053897788       -1.2029294985       -2.5366211132
 H         -0.1111280972       -1.3567025102       -3.1437281204
 H          1.5770892776       -0.1185465337       -1.8611211018
 H          0.9109774807        1.3657885223        1.3750793207
 C          1.0019511454        3.0161566416        0.0172907314
 C          0.0934587909        3.8698517251        0.8477941867
 C          1.5795156911        4.0195700057        0.9685656772
 H          2.0529745664        4.9002153899        0.5620569628
 H          2.0590194473        3.6385683748        1.8589117764
 H         -0.4649474485        4.6525150521        0.3577973202
 H         -0.4252561496        3.4062633597        1.6733101113
 H          1.0791495385        3.2400739954       -1.0395411854
