  62
        -98.93926320
 C         -2.5431785805       -0.1909475152        0.0391271011
 C         -2.2475725551       -1.1939137450       -0.9098420832
 C         -1.6118731467       -2.4234227302       -0.4050810706
 C         -1.3544003467       -2.5357277547        0.9116699832
 C         -0.7324666615       -3.6545294308        1.7222569202
 C         -0.1372863698       -4.8763244155        1.0297839575
 C          1.1813223144       -4.6097168717        0.3002087850
 H          1.9688921542       -4.4957123653        1.0491186312
 H          1.4235714909       -5.4826614829       -0.3097092309
 C          1.2154986066       -3.3625984404       -0.5804039464
 H          1.0065250102       -2.4729274127        0.0178986453
 H          2.2342283192       -3.2457954126       -0.9628134822
 C          0.2777648167       -3.3807480695       -1.7849538848
 H          0.4657740084       -2.4646559003       -2.3540941695
 H          0.5162510890       -4.2322666728       -2.4269071938
 C         -1.2205127514       -3.4272509190       -1.4521066132
 H         -1.7742936318       -3.1548403335       -2.3561049464
 H         -1.5274315203       -4.4312032373       -1.1697195864
 H          0.0636116860       -5.6139156002        1.8114093973
 H         -0.8709735097       -5.3186327475        0.3620297861
 H          0.0367220833       -3.1802105904        2.3405470610
 H         -1.5180579849       -3.9888249908        2.4088177397
 O         -1.6984306948       -1.5552589273        1.7976667582
 C         -2.2360650725       -0.3488166313        1.3890653177
 O         -2.4113056871        0.4744480324        2.3084723102
 O         -2.5019775726       -1.0663422466       -2.1407407729
 C         -3.0566766148        1.1529418294       -0.4425645520
 C         -2.0057662171        2.2078679724       -0.1844890859
 C         -2.2986275914        3.5134268802        0.1855805664
 C         -1.2768736542        4.4236458043        0.4045725040
 C          0.0489317325        4.0516060913        0.2855647925
 C          0.3521794708        2.7434527783       -0.0810270344
 C         -0.6720331797        1.8528216293       -0.3452956898
 H         -0.4237639846        0.8511298703       -0.6644463940
 N          1.6881337821        2.3049600407       -0.1360602452
 S          2.0608783826        0.6872545378       -0.3662715098
 O          1.8109797668        0.2772742218       -1.7326961198
 O          1.4253559247       -0.0802174313        0.6742352007
 C          3.8195664296        0.7510813277       -0.0804672330
 C          4.6896024621        0.7671082784       -1.1536993521
 C          6.0525591715        0.8436340275       -0.9121553399
 C          6.5198761160        0.9043355005        0.3918571221
 C          5.6347435708        0.8851733265        1.4597526256
 C          4.2713847063        0.8083115447        1.2242620418
 H          3.5452753917        0.7812170078        2.0204046159
 H          6.0010396245        0.9293271223        2.4727386234
 H          7.5805528432        0.9639416194        0.5779066879
 H          6.7428574787        0.8549638875       -1.7401515540
 H          4.2801997958        0.7081287906       -2.1493465011
 H          2.3374773508        2.9441303701       -0.5685173027
 H          0.8427852369        4.7550696795        0.4804777754
 H         -1.5195547933        5.4369553829        0.6866831164
 H         -3.3256326355        3.8181493310        0.3054850068
 H         -3.1748506834        1.0479471706       -1.5325151572
 C         -4.4025757621        1.4843945368        0.1660962499
 C         -5.4031039014        2.2945285267       -0.6016289406
 C         -5.6290416949        0.8284568642       -0.3918452717
 H         -6.4024097961        0.5150396651        0.2929649953
 H         -5.4939616612        0.1629784885       -1.2321991344
 H         -6.0273448049        2.9893367947       -0.0603567575
 H         -5.1257811029        2.6252221298       -1.5912615222
 H         -4.3490674239        1.6150911241        1.2408470106
