  62
        -98.93828995
 C          2.1938657422        0.9214859778       -0.0952529958
 C          2.9252446128        0.2642666513        0.9189048813
 C          3.7072958697       -0.9167528983        0.5119943830
 C          3.6771589619       -1.3160676292       -0.7735750222
 C          4.3278933612       -2.4944466050       -1.4682317972
 C          5.4281151411       -3.2980729229       -0.7802830011
 C          6.7399299993       -2.5402609834       -0.5776132708
 H          7.4098203414       -3.1677456462        0.0142099184
 H          7.2051665019       -2.3858272818       -1.5543771313
 C          6.6159347169       -1.1744298214        0.0929436375
 H          7.6180805020       -0.7423655151        0.1593152767
 H          6.0203392284       -0.5094304789       -0.5357408321
 C          6.0234138860       -1.1883380339        1.5005125104
 H          6.1346823214       -0.1825973855        1.9148596238
 H          6.5909021305       -1.8742322354        2.1325176589
 C          4.5336619273       -1.5614472572        1.5876472366
 H          4.1462653645       -1.1839504191        2.5388322592
 H          4.3953898283       -2.6401514965        1.5860965293
 H          5.6387869178       -4.1539624321       -1.4272518007
 H          5.0683631762       -3.6991090448        0.1627511563
 H          3.5087317734       -3.1759972138       -1.7230544518
 H          4.7094766823       -2.1056840821       -2.4176806666
 O          2.9322510401       -0.6624273592       -1.7132226039
 C          2.1809361529        0.4613683217       -1.4107505392
 O          1.5623228024        0.9411670836       -2.3780380982
 O          2.9158241392        0.6381888010        2.1241865062
 C          1.3682695782        2.1437426695        0.2594374412
 C         -0.0917259772        1.8918559957       -0.0298594396
 C         -0.9157190632        2.8126004791       -0.6631180101
 C         -2.2500933153        2.5200102160       -0.8883224747
 C         -2.7914286247        1.3121152075       -0.4897313603
 C         -1.9803783709        0.3893214951        0.1585002679
 C         -0.6466188515        0.6885357052        0.3889440873
 H         -0.0167815924       -0.0317578692        0.8976369583
 N         -2.5123068499       -0.8486424017        0.5568454711
 S         -3.9662238888       -0.8729847025        1.3937886063
 O         -4.1549709183        0.3332136410        2.1658957890
 O         -3.9519139575       -2.1144813861        2.1365098663
 C         -5.1967058145       -0.9790126347        0.1117807318
 C         -6.2428183864       -0.0777834847        0.0843619559
 C         -7.1973774215       -0.1898524410       -0.9147138227
 C         -7.0895811039       -1.1959094949       -1.8624920913
 C         -6.0333823919       -2.0940280815       -1.8199011464
 C         -5.0767557393       -1.9885759137       -0.8230363150
 H         -4.2424392548       -2.6666894521       -0.7538305067
 H         -5.9520376472       -2.8745077027       -2.5592884645
 H         -7.8329236678       -1.2811562989       -2.6393190670
 H         -8.0191304796        0.5071581925       -0.9497995694
 H         -6.2819311432        0.6917956496        0.8387147627
 H         -1.8375488297       -1.4609362930        0.9914128835
 H         -3.8279139563        1.0789270390       -0.6706436757
 H         -2.8769124410        3.2427205309       -1.3879256708
 H         -0.5127996769        3.7585047531       -0.9854359654
 H          1.4804506697        2.2670700263        1.3475683982
 C          1.9217018108        3.3739424401       -0.4285640997
 C          1.7806391075        4.7243818153        0.2058558063
 C          3.1193975065        4.0529854768        0.1628673069
 H          3.8737246964        4.4428203712       -0.5039311183
 H          3.5178205160        3.6437311677        1.0800044759
 H          1.6180401397        5.5797178720       -0.4324185380
 H          1.2724105795        4.7797229536        1.1567604398
 H          1.8684424358        3.3044730545       -1.5092040383
