  62
        -98.93717932
 C          0.7402097076        1.3156515581        0.4017552749
 C          1.5668449102        0.4927681119        1.2030117091
 C          2.4572149157       -0.4449475698        0.4974270104
 C          2.3547212030       -0.5508204645       -0.8384681828
 C          3.1603356369       -1.4261569788       -1.7597490162
 C          4.3672485770       -0.6600694919       -2.3276358845
 C          5.6241342243       -0.7044690402       -1.4592283972
 H          6.0499000417       -1.7093457088       -1.4958184932
 H          6.3519875238       -0.0239595228       -1.9069580146
 C          5.4180959845       -0.3117220373        0.0058455994
 H          6.3876682619       -0.0211112518        0.4146454545
 H          4.7691606021        0.5642878355        0.0617010669
 C          4.8361818811       -1.4483990049        0.8595180038
 H          4.8722842742       -2.3771828541        0.2909288020
 H          5.4659462682       -1.5992291846        1.7387198119
 C          3.4113557026       -1.2092958436        1.3751024729
 H          3.4527817527       -0.6314394361        2.3038650051
 H          2.9607731538       -2.1712423818        1.6370987663
 H          4.6165553455       -1.0750031886       -3.3064856966
 H          4.0615879468        0.3780387214       -2.4829777459
 H          3.4753890233       -2.3355089806       -1.2565505385
 H          2.4987952243       -1.6937471780       -2.5871052053
 O          1.4841752958        0.2027753436       -1.5677892641
 C          0.6869217755        1.1761268577       -0.9861273646
 O          0.0013264723        1.8254723976       -1.7970758501
 O          1.5709954436        0.5453466817        2.4620993781
 C         -0.1517296440        2.3153738258        1.1129995691
 C         -1.5628840488        2.2350788805        0.5859560426
 C         -2.3240371542        3.3453091471        0.2446057770
 C         -3.6238925760        3.1923980062       -0.2059710982
 C         -4.1859849001        1.9365825329       -0.3371935016
 C         -3.4317389889        0.8180274247       -0.0032087058
 C         -2.1408724925        0.9760411233        0.4705214558
 H         -1.5598803457        0.1021841946        0.7310777952
 N         -3.9619333702       -0.4813025398       -0.1133238601
 S         -3.0538187719       -1.6267913364       -0.9350047380
 O         -2.3221864228       -1.0469472362       -2.0365242420
 O         -4.0123207583       -2.6555177884       -1.2873710007
 C         -1.9311381650       -2.3001134346        0.2687181081
 C         -0.6259291527       -2.5408682960       -0.1093365872
 C          0.2366461244       -3.1345180370        0.7976797026
 C         -0.2159935461       -3.4634785276        2.0654712375
 C         -1.5293850022       -3.2097731742        2.4317740426
 C         -2.4018101426       -2.6311837301        1.5241431502
 H         -3.4303885868       -2.4249251526        1.7692175930
 H         -1.8752490870       -3.4642739284        3.4206230384
 H          0.4598201691       -3.9183008826        2.7724064182
 H          1.2549921660       -3.3345664105        0.5062132629
 H         -0.3103168351       -2.2471810459       -1.0986189349
 H         -4.9239235572       -0.5103767157       -0.4223913852
 H         -5.1947787595        1.8175301640       -0.7030808062
 H         -4.2029176075        4.0641278804       -0.4709748983
 H         -1.8973796153        4.3322425881        0.3130389993
 H         -0.1698182581        1.9604075355        2.1580102905
 C          0.4020234658        3.7331881755        1.1529485172
 C          1.8578543365        4.0084954177        0.9272383133
 C          0.8470166923        4.4480914254       -0.0867194107
 H          0.6367277607        5.5040535400       -0.1754623767
 H          0.7834745999        3.9088544262       -1.0189078479
 H          2.3377521092        4.7584004904        1.5381499524
 H          2.4956185602        3.1716652405        0.6816918418
 H         -0.0808519657        4.3375518693        1.9145922889
