  62
        -98.94468163
 C         -2.5570525949       -0.8663439859        0.2888593896
 C         -2.5101898167        0.0175855077       -0.8166242672
 C         -2.8204209748        1.4258674304       -0.5301207700
 C         -3.1508252141        1.7954737596        0.7193790199
 C         -3.4343876291        3.2021828552        1.1571191881
 C         -2.1645317975        3.8944501267        1.6705230038
 C         -0.9618465888        3.7726798168        0.7336354355
 H         -0.6256554977        2.7332322104        0.6937746302
 H         -0.1462247071        4.3486345612        1.1771296693
 C         -1.2129417699        4.2700793048       -0.6964466103
 H         -0.3514771532        4.8612252564       -1.0145170632
 H         -2.0852881206        4.9252597870       -0.7171469927
 C         -1.3862904808        3.1544107317       -1.7290493485
 H         -0.5683998258        2.4354830596       -1.6196860319
 H         -1.3015706339        3.5958731211       -2.7263351310
 C         -2.7200217567        2.3970201221       -1.6720894230
 H         -2.8044013379        1.8001310963       -2.5850299150
 H         -3.5472043765        3.1097010474       -1.6503525193
 H         -1.8931243890        3.4519696392        2.6316261816
 H         -2.3917012058        4.9498430979        1.8332995351
 H         -3.8520034545        3.7598956997        0.3212732511
 H         -4.1687563466        3.1683984296        1.9638901851
 O         -3.2289743076        0.9146168024        1.7483343178
 C         -2.9036878458       -0.4169765205        1.5677825784
 O         -2.9745369789       -1.1032574727        2.6069828103
 H         -0.3767725334       -1.3827099792       -1.5806013003
 C          0.1139035140       -1.8281870943       -0.7280040713
 C         -0.6491423884       -2.4055481791        0.2769799077
 C          0.0070077367       -2.9519876065        1.3737828704
 C          1.3877009000       -2.9063915909        1.4656306459
 C          2.1399072302       -2.2886524813        0.4811385189
 C          1.4904130957       -1.7414272045       -0.6161167051
 N          2.2402209869       -1.0094849015       -1.5766999348
 S          2.4827427990        0.5770993781       -1.0424439789
 O          1.3694747860        1.0451483141       -0.2473722876
 O          2.8018169544        1.3509027666       -2.2226230095
 C          3.9332194432        0.4124789637       -0.0255705932
 C          3.8249057101        0.5197752880        1.3465372609
 C          4.9616006054        0.3527646278        2.1225210280
 C          6.1782084319        0.0812751176        1.5152208054
 C          6.2701582247       -0.0219769969        0.1349171232
 C          5.1377571331        0.1437245316       -0.6461207832
 H          5.1612196492        0.0767469495       -1.7209987606
 H          7.2182660087       -0.2322893839       -0.3331530368
 H          7.0600373455       -0.0503472206        2.1221495336
 H          4.8913980916        0.4321159343        3.1955095603
 H          2.8564373078        0.7267626328        1.7738453971
 H          1.7630496924       -0.9618748860       -2.4682689416
 H          3.2130263075       -2.2206678622        0.5581719172
 H          1.8816277170       -3.3365664233        2.3233786671
 H         -0.5770684321       -3.3887696588        2.1709071131
 C         -2.1559574527       -2.3348392656        0.2123573230
 H         -2.5570690971       -2.8032903578        1.1208513182
 C         -2.7124908872       -3.0664923121       -0.9914705007
 C         -2.7896707732       -4.5623527111       -0.9544844824
 C         -4.0435845501       -3.7447564890       -0.8837596231
 H         -4.7001480027       -3.7265765481       -1.7405586295
 H         -4.5603154486       -3.6828498796        0.0630326827
 H         -2.4576078722       -5.0577614996       -0.0547236047
 H         -2.5835024783       -5.1103502344       -1.8609386002
 H         -2.4721911512       -2.5959181127       -1.9352853146
 O         -2.2274073686       -0.3242488785       -1.9982340358
