  62
        -98.93781414
 C         -1.2270979798       -1.0269813811        0.2495945496
 C         -1.7027522890        0.1146378073        0.9379064274
 C         -2.7958952347        0.8784641443        0.3081455190
 C         -3.2227467420        0.5039867663       -0.9117554963
 C         -4.3456491975        1.0912968306       -1.7238868140
 C         -5.7319374817        0.6748241960       -1.2029735040
 C         -5.8886835938        0.7070833235        0.3154413199
 H         -6.8624448739        0.2733789717        0.5576322695
 H         -5.1281293268        0.0679578967        0.7677468825
 C         -5.8259471840        2.0950146841        0.9483677463
 H         -6.0173818985        1.9740805772        2.0176189545
 H         -6.6263465597        2.7130012260        0.5353136771
 C         -4.5033784799        2.8458653666        0.7838359482
 H         -4.4056992109        3.2502795701       -0.2201991604
 H         -4.5291338936        3.7043562383        1.4616388613
 C         -3.2596375187        2.0420124746        1.1511591995
 H         -2.4049123085        2.7289505624        1.1978837237
 H         -3.3733855344        1.6512360536        2.1688677689
 H         -5.9205262443       -0.3494439713       -1.5337134832
 H         -6.4814345762        1.3209702078       -1.6627300281
 H         -4.2503451686        2.1726787162       -1.7615702187
 H         -4.2276717904        0.7135607197       -2.7420406861
 O         -2.6742848684       -0.5496843699       -1.5795685002
 C         -1.6627785359       -1.3274523196       -1.0410239032
 O         -1.2556036668       -2.2249670703       -1.8021465107
 H          0.9644327060        0.1652422854       -0.4646876670
 C          1.5058827978       -0.7516376325       -0.6405847231
 C          1.0645375497       -1.9276130141       -0.0481556114
 C          1.7446548388       -3.1048629315       -0.3290495756
 C          2.8333647249       -3.0932924260       -1.1847454735
 C          3.2822514019       -1.9157706948       -1.7540534572
 C          2.6052573948       -0.7321417358       -1.4809270943
 N          3.0192336023        0.4904340053       -2.0301614403
 S          2.8382163564        1.8935823937       -1.1414168530
 O          1.4638435324        2.3306164237       -1.1581353247
 O          3.7948947225        2.8095409829       -1.7262532054
 C          3.3517326300        1.4617057035        0.5124294065
 C          2.4403424617        1.4101966513        1.5468744989
 C          2.8759749898        1.0215494927        2.8043361360
 C          4.2075214945        0.6950162719        3.0059597191
 C          5.1141659450        0.7617629319        1.9585533041
 C          4.6839673153        1.1456367488        0.6995507519
 H          5.3601831024        1.2191889205       -0.1365446889
 H          6.1505788771        0.5126177465        2.1190696644
 H          4.5393086423        0.3894546275        3.9856521655
 H          2.1638828712        0.9705849866        3.6127587883
 H          1.4071427809        1.6635449353        1.3655081168
 H          3.8924089306        0.4638140772       -2.5350034430
 H          4.1356303943       -1.9104563185       -2.4144537102
 H          3.3463177988       -4.0169811738       -1.4055578404
 H          1.4122767875       -4.0345082227        0.1023220835
 C         -0.1083754423       -1.8236214613        0.8944928991
 H          0.2132287833       -1.1892800181        1.7390373005
 C         -0.5331277156       -3.1541841199        1.4972237874
 C         -1.9653179527       -3.4295242415        1.8432195222
 C         -1.3073538968       -4.1791477007        0.7257304441
 H         -1.0710744851       -5.2218911476        0.8805543025
 H         -1.5806398464       -3.9366494726       -0.2887168131
 H         -2.1807384443       -3.9533204100        2.7625777053
 H         -2.6958099892       -2.6751227044        1.5878592564
 H          0.2049642539       -3.5334315173        2.1972777240
 O         -1.2353888251        0.4866209953        2.0490274636
