  62
        -98.94415854
 C          1.9641002003        0.9425726303        0.0669566696
 C          2.3461994504       -0.4182471997        0.1510074599
 C          3.7503444404       -0.6622502695        0.5087290099
 C          4.5690088904        0.3744438506        0.7623901796
 C          6.0186606104        0.2835349507        1.1552657596
 C          6.9779392304        0.1298866105       -0.0330369604
 C          6.9609635304       -1.2409218997       -0.7106889801
 H          7.8266382304       -1.2806501598       -1.3748467001
 H          7.0922654605       -2.0190701595        0.0418270901
 C          5.6961424704       -1.5259956899       -1.5326172600
 H          5.9775648204       -1.9467860002       -2.5006474299
 H          5.1714265303       -0.5887690700       -1.7320209502
 C          4.7228902005       -2.5070954498       -0.8787718397
 H          3.8478922304       -2.6060096500       -1.5265676996
 H          5.1924435405       -3.4899496798       -0.7965452795
 C          4.2354006605       -2.0804342195        0.5120871302
 H          3.3925049705       -2.7180234595        0.7907156804
 H          5.0305902705       -2.2106614493        1.2458626802
 H          7.9885172504        0.3146769206        0.3383273695
 H          6.7479504703        0.9030310403       -0.7697128306
 H          6.2592043604        1.2142562708        1.6734621694
 H          6.1593483305       -0.5465619791        1.8480517398
 O          4.1512099903        1.6671709505        0.7068556293
 C          2.8522290503        1.9826534904        0.3440449893
 O          2.6111424002        3.2064952204        0.3123114590
 H         -1.3893390996       -0.6590629900       -0.5854658000
 C         -1.3324935696       -0.2326958498        0.4010198899
 C         -0.4167991096        0.7650883803        0.6911546997
 C         -0.3552661896        1.2604228206        1.9922073096
 C         -1.1845156496        0.7621127508        2.9772384997
 C         -2.0973538995       -0.2367262293        2.6843060400
 C         -2.1652216796       -0.7404437296        1.3910723201
 N         -3.0594485895       -1.7770003997        1.0845184504
 S         -3.9518623096       -1.7979586101       -0.3255039296
 O         -4.9194606895       -2.8528938501       -0.1200089793
 O         -3.0918818196       -1.9331353203       -1.4723391196
 C         -4.7840311796       -0.2206888901       -0.3542001200
 C         -4.1879162297        0.8549406797       -0.9807942702
 C         -4.8236187498        2.0862112197       -0.9432408905
 C         -6.0355981897        2.2204953498       -0.2839040405
 C         -6.6223713697        1.1293027599        0.3392001798
 C         -5.9902523196       -0.1028699000        0.3090985400
 H         -6.4156756296       -0.9793376900        0.7704912703
 H         -7.5671502397        1.2357611500        0.8474727298
 H         -6.5265096198        3.1805545298       -0.2588984307
 H         -4.3688834598        2.9345134296       -1.4295703107
 H         -3.2479139997        0.7141998197       -1.4877866602
 H         -3.6174448195       -2.0921858496        1.8641973604
 H         -2.7407855995       -0.6344846991        3.4543893601
 H         -1.1228124296        1.1533346311        3.9815369396
 H          0.3644575303        2.0356547007        2.2186833994
 C          0.5460249303        1.3211571901       -0.3289090805
 H          0.5032510203        2.4182948301       -0.2758389507
 C          0.2610879303        0.8938314798       -1.7527465904
 C         -0.7783536098        1.6160366095       -2.5542405205
 C          0.6748067802        1.7969072095       -2.8740885806
 H          1.0654749102        1.3520410593       -3.7770612405
 H          1.1451032302        2.7330853996       -2.6096087508
 H         -1.3865958898        1.0464921493       -3.2415777504
 H         -1.2923168998        2.4373759896       -2.0776538707
 H          0.3755878003       -0.1725986203       -1.9092289301
 O          1.5658468404       -1.3825620198       -0.0601850499
