  62
        -98.94496376
 C          1.8915107248        0.7336158442       -0.1520533804
 C          2.4634959709        0.1095777742        0.9816219593
 C          3.5231454999       -0.8707981744        0.7108072313
 C          3.8527746996       -1.1461619731       -0.5646335390
 C          4.9452934958       -2.0862318895       -0.9828493176
 C          6.2807090879       -1.3472706484       -1.1480298598
 C          6.6421033926       -0.4522850319        0.0374332815
 H          5.9208254642        0.3657694165        0.0990607244
 H          7.6158806587       -0.0066863953       -0.1766998918
 C          6.6986250720       -1.1800518852        1.3878718829
 H          7.5973103047       -0.8613519832        1.9201133442
 H          6.7827016397       -2.2553896986        1.2263010509
 C          5.5113579383       -0.8976224420        2.3102653083
 H          5.3668454089        0.1818919109        2.4007299063
 H          5.7553570732       -1.2796499165        3.3051320880
 C          4.1772768605       -1.5292847333        1.8930281592
 H          3.4786929741       -1.4106865723        2.7267143121
 H          4.3165444370       -2.5972457981        1.7121404061
 H          6.2222974212       -0.7234944827       -2.0429827379
 H          7.0678296039       -2.0878526253       -1.3010688286
 H          5.0441365690       -2.8752288674       -0.2396515116
 H          4.6665020664       -2.5332873612       -1.9386519587
 O          3.2499229423       -0.5593394402       -1.6296850098
 C          2.2609533303        0.3988701432       -1.4551609268
 O          1.7999426838        0.8600487434       -2.5153298382
 H         -0.3207946124       -0.6111651393        0.3352420483
 C         -0.9168417818        0.0187434319       -0.3136577128
 C         -0.4825806181        1.3112761710       -0.5841731135
 C         -1.2664307964        2.1138334150       -1.4018443009
 C         -2.4321572856        1.6181879583       -1.9615515789
 C         -2.8464361656        0.3235876649       -1.7117283317
 C         -2.0814173571       -0.4805591533       -0.8751918358
 N         -2.5003764778       -1.7920266145       -0.5985977243
 S         -4.1206407783       -2.0582494206       -0.2815225691
 O         -4.1523583702       -3.2349429313        0.5587822304
 O         -4.8499209738       -2.1534804019       -1.5216979842
 C         -4.6668823793       -0.6240019248        0.6288724693
 C         -5.6863331069        0.1609602295        0.1301517091
 C         -6.0772937980        1.2840525922        0.8416062256
 C         -5.4422631433        1.6028856233        2.0316121791
 C         -4.4216158381        0.8021794473        2.5215172404
 C         -4.0282042517       -0.3229322943        1.8156146007
 H         -3.2403187630       -0.9668303185        2.1730811598
 H         -3.9277382042        1.0511742856        3.4471478830
 H         -5.7435638187        2.4796858739        2.5827035566
 H         -6.8718349726        1.9071296737        0.4639753569
 H         -6.1500083703       -0.1220725865       -0.8007634377
 H         -1.9068865068       -2.2890656628        0.0483373086
 H         -3.7388646856       -0.0827119926       -2.1592182697
 H         -3.0240116016        2.2486698981       -2.6071261658
 H         -0.9595517305        3.1246873734       -1.6127323927
 C          0.8050822356        1.7739347524        0.0524034013
 H          0.6486511482        1.8201562861        1.1405943487
 C          1.2714558213        3.1311879146       -0.4297590028
 C          0.7360263148        4.3812378215        0.2001398174
 C          2.1472803635        3.9537425186        0.4657562711
 H          2.9528589556        4.5191897820        0.0217480946
 H          2.3857742431        3.5456321657        1.4372816118
 H          0.0157853940        4.2705424717        0.9963308790
 H          0.5738044196        5.2454823295       -0.4259881098
 H          1.4911780303        3.1427215359       -1.4913782620
 O          2.0981788296        0.3547175843        2.1637755747
