  62
        -98.93456631
 C         -2.0595163613       -1.4814577983        0.3027204141
 C         -1.7179082313       -0.4683074705       -0.6267918735
 C         -2.5584448133        0.7429535885       -0.5955962110
 C         -3.5614606645        0.8316538122        0.2953569790
 C         -4.4438484910        2.0302579239        0.5000336907
 C         -3.6892513994        3.1058689079        1.3078072987
 C         -3.4047062125        4.3942571515        0.5350197742
 H         -4.3256205489        4.9772526377        0.4675236328
 H         -2.6901507515        4.9756185363        1.1220621888
 C         -2.8575847370        4.2176268001       -0.8848379844
 H         -3.6766692843        3.9839408174       -1.5665682656
 H         -2.4621576858        5.1874915513       -1.1939862615
 C         -1.7583204179        3.1611007026       -1.0572471301
 H         -1.2317722734        2.9997837802       -0.1157187688
 H         -1.0258678347        3.5523600073       -1.7663951656
 C         -2.2511548900        1.8100152438       -1.6095121555
 H         -3.1265680049        1.9738115914       -2.2437648192
 H         -1.4671467196        1.3762692724       -2.2371312104
 H         -4.2644958115        3.3623717718        2.1988160561
 H         -2.7481623587        2.6753018837        1.6578656853
 H         -4.7592951950        2.4254486515       -0.4629975494
 H         -5.3259870187        1.6954430913        1.0462580451
 O         -3.8387873674       -0.1503467245        1.1926880612
 C         -3.0937449493       -1.3189089725        1.2268359126
 O         -3.4380114737       -2.1186607451        2.1200066955
 H          0.0259250071       -0.9596703727        1.8264362186
 C          0.7114940700       -1.4997889019        1.1838407675
 C          0.2133828577       -2.4894303070        0.3447033838
 C          1.1046664581       -3.1649364309       -0.4782717609
 C          2.4553963648       -2.8615455037       -0.4495653823
 C          2.9453999879       -1.8734385016        0.3832216929
 C          2.0584271833       -1.1758378578        1.1940875972
 N          2.5340745283       -0.1416417668        2.0164383056
 S          3.6922906844        0.8972846547        1.4008219078
 O          4.9998317041        0.3172988132        1.5886103708
 O          3.4633290397        2.1540746133        2.0809834380
 C          3.3598310200        1.0628310855       -0.3444673064
 C          4.3618470758        0.7818700556       -1.2514530384
 C          4.0975192664        0.9119826015       -2.6049276349
 C          2.8405182756        1.3173000241       -3.0255537205
 C          1.8471222310        1.6016298346       -2.1019286169
 C          2.1058550419        1.4748335984       -0.7477234962
 H          1.3452275172        1.6838010943       -0.0123138098
 H          0.8659345849        1.9048060484       -2.4276931418
 H          2.6303975247        1.4116342366       -4.0792438104
 H          4.8689757562        0.6928923109       -3.3255124182
 H          5.3225298629        0.4646096581       -0.8790508741
 H          1.8093798950        0.3652411673        2.5020946902
 H          3.9950457455       -1.6307636700        0.4203030429
 H          3.1365349049       -3.3994187010       -1.0909173901
 H          0.7433594313       -3.9204011909       -1.1557035842
 C         -1.2690096539       -2.7753401040        0.3944495042
 H         -1.4935842115       -3.1721542983        1.3991343077
 C         -1.7101899265       -3.8423633757       -0.5978878564
 C         -3.0746861689       -3.8133198602       -1.2178805301
 C         -1.8639981337       -3.5508691469       -2.0594487928
 H         -1.5612828997       -4.3073204341       -2.7686019438
 H         -1.6719456884       -2.5413404097       -2.3855699480
 H         -3.5984193187       -4.7495382784       -1.3416176605
 H         -3.7216791250       -2.9830150463       -0.9737853027
 H         -1.3315930050       -4.8245330771       -0.3324895378
 O         -0.7647658496       -0.5535936598       -1.4410444948
