  62
        -98.93001086
 C          2.4299495427        0.9999167435        0.3065074160
 C          2.9358851536       -0.0279202233        1.1380775601
 C          3.6616682223       -1.1335534325        0.4831989129
 C          3.7723413140       -1.1251671685       -0.8580081692
 C          4.4208684349       -2.1552297253       -1.7435566444
 C          3.5531091605       -3.4126367232       -1.9205868951
 C          2.8888668182       -3.9228189752       -0.6440672335
 H          2.2798932141       -3.1253757439       -0.2138234939
 H          2.2104756859       -4.7329563368       -0.9242080098
 C          3.8448945476       -4.4613734948        0.4176933911
 H          3.2351003834       -4.8526775310        1.2361378353
 H          4.4116974618       -5.2955544567       -0.0018532641
 C          4.8335758355       -3.4511036359        1.0024597490
 H          5.6474698381       -3.2554999985        0.3095973255
 H          5.2833885275       -3.9111751839        1.8872580930
 C          4.2085407655       -2.1392934094        1.4677173914
 H          4.9492387329       -1.5950489467        2.0666114632
 H          3.3867938115       -2.3590558078        2.1588237339
 H          4.1717076719       -4.2011438160       -2.3521972866
 H          2.7606738859       -3.1758594457       -2.6347726950
 H          4.5575638037       -1.6874369785       -2.7209726871
 H          5.4036433450       -2.4109502007       -1.3586534447
 O          3.2281877496       -0.1385957688       -1.6245700224
 C          2.5445424621        0.9374261274       -1.0828590368
 O          2.1042027527        1.7344695121       -1.9308410068
 O          2.7786892252       -0.0345452009        2.3896597051
 C          1.6763110813        2.1375609064        0.9711795555
 C          0.3585042908        2.3628615953        0.2725309667
 C          0.0016170513        3.5577905596       -0.3359630949
 C         -1.2274003377        3.6841475320       -0.9606175444
 C         -2.1212457530        2.6306315440       -0.9952013316
 C         -1.7757340982        1.4300082454       -0.3873393873
 C         -0.5496091707        1.3105870782        0.2485988934
 H         -0.2781084220        0.3749206495        0.7235481615
 N         -2.6646020312        0.3365250292       -0.4358444289
 S         -4.2769156772        0.6414895170       -0.0294264510
 O         -4.9228460802        1.2720426938       -1.1524028682
 O         -4.3457753607        1.3610236931        1.2236945766
 C         -4.8938490723       -1.0178552008        0.1698372301
 C         -5.2689967895       -1.7258125355       -0.9560893933
 C         -5.7216095708       -3.0271926014       -0.8082526885
 C         -5.7902689101       -3.5957093378        0.4551243811
 C         -5.4122149184       -2.8717576717        1.5759028457
 C         -4.9571534776       -1.5700870286        1.4350249310
 H         -4.6610781274       -0.9676144134        2.2790020458
 H         -5.4698209086       -3.3150602286        2.5570150721
 H         -6.1435029900       -4.6085573326        0.5676599960
 H         -6.0189447018       -3.5926539223       -1.6766099644
 H         -5.2065435688       -1.2401352622       -1.9158274841
 H         -2.3159001988       -0.4491031961        0.0972597010
 H         -3.0799372850        2.7209925490       -1.4796271545
 H         -1.4909717989        4.6175300115       -1.4352391855
 H          0.6926284183        4.3844866445       -0.3414540604
 H          1.4574239115        1.7605393508        1.9849125142
 C          2.4895096932        3.4093359347        1.1564349803
 C          3.9798512887        3.3557812014        1.3062029492
 C          3.3715613935        3.9689237861        0.0824639691
 H          3.4214303812        5.0423031443       -0.0296635802
 H          3.4280499487        3.4301714026       -0.8499829575
 H          4.4464649866        4.0047924578        2.0319625858
 H          4.4574666748        2.3913642092        1.2109473355
 H          1.9711907406        4.1292183331        1.7829016224
