  62
        -98.94309686
 C         -1.4757380923       -1.0721172578       -0.0055803034
 C         -2.5222923212       -0.6323272541        0.8349734254
 C         -3.0682576188        0.7050170811        0.5550265030
 C         -2.5440927019        1.4343392408       -0.4452966984
 C         -2.9078728352        2.8336683181       -0.8756841789
 C         -4.3978987925        3.1981305361       -0.9292074353
 C         -5.3343427592        2.0459218248       -1.3220503932
 H         -5.9832820199        2.3780159020       -2.1344006790
 H         -4.7514165350        1.2015206238       -1.6934940926
 C         -6.2262855737        1.5816706888       -0.1682674992
 H         -6.6042537718        2.4609761283        0.3577481518
 H         -7.0879276439        1.0518542150       -0.5812998697
 C         -5.5597554684        0.6453696149        0.8387497656
 H         -5.3814659381       -0.3294725313        0.3770354092
 H         -6.2577152439        0.4861754764        1.6642088325
 C         -4.2216161516        1.1371303542        1.4147364507
 H         -4.2276478432        2.2137781134        1.5680486999
 H         -4.0728318733        0.6508020999        2.3830192646
 H         -4.4965820760        4.0104580617       -1.6513096709
 H         -4.7098726589        3.5971537829        0.0349578514
 H         -2.4670160785        2.9478245574       -1.8691216999
 H         -2.3869773828        3.5322963876       -0.2136490951
 O         -1.5272617714        0.9748142539       -1.2264760383
 C         -0.9597315963       -0.2692854399       -1.0204719336
 O         -0.0273432184       -0.5470530387       -1.8003072064
 O         -2.9738940107       -1.3233179248        1.7894975217
 C         -0.8530148902       -2.4341605014        0.2335464148
 C          0.6337326764       -2.3058622977        0.4572400283
 C          1.5545222006       -3.2303653545       -0.0215333763
 C          2.9089412932       -3.0588191968        0.2071513542
 C          3.3758534139       -1.9538474475        0.8950341346
 C          2.4622412825       -1.0282065736        1.3843630460
 C          1.1055259182       -1.2230482914        1.1882637255
 H          0.4122747060       -0.4915540056        1.5779126998
 N          2.8816405976        0.1366543783        2.0651874800
 S          2.5991781031        1.5829849513        1.2608288893
 O          3.2085532827        2.6005388553        2.0914822008
 O          1.1915348999        1.7335726536        0.9986556092
 C          3.5352759342        1.4137218807       -0.2485801983
 C          2.9998819062        0.7105242201       -1.3089321512
 C          3.7859404559        0.5072057032       -2.4338570978
 C          5.0799941763        1.0015875679       -2.4787864383
 C          5.6009363120        1.7074024179       -1.4043355790
 C          4.8249651596        1.9107995346       -0.2753837055
 H          5.1846572858        2.4545304432        0.5834080028
 H          6.6065332087        2.0943895445       -1.4414834889
 H          5.6844744630        0.8360008523       -3.3566481716
 H          3.3728174859       -0.0420576343       -3.2646512794
 H          1.9878775462        0.3378968082       -1.2592044241
 H          3.8525738512        0.1087660074        2.3480280728
 H          4.4336130834       -1.8043712517        1.0514448365
 H          3.6107164990       -3.7857718136       -0.1718164885
 H          1.2103184729       -4.0856131839       -0.5797908549
 H         -1.3116863356       -2.8080527020        1.1618617077
 C         -1.2066784250       -3.3777186433       -0.8988938415
 C         -1.3876083237       -4.8434825524       -0.6424740942
 C         -2.5778032515       -3.9812671892       -0.9332896032
 H         -3.0730660945       -4.0842487592       -1.8871624226
 H         -3.2449126653       -3.7356728444       -0.1197521584
 H         -1.0676617954       -5.5427737888       -1.4002209622
 H         -1.2549648813       -5.1947767980        0.3696215114
 H         -0.7716600711       -3.0704376823       -1.8436084232
