  62
        -98.94686065
 C          1.2330966394        1.2175150757        0.0859236690
 C          1.9635655659        0.6656603383        1.1641517060
 C          2.6507980211       -0.6035646800        0.8917347061
 C          2.5208790346       -1.1732763756       -0.3206667443
 C          3.2230731451       -2.4267779254       -0.7542882271
 C          4.5748199439       -2.1051215493       -1.4075325393
 C          5.4475325115       -1.1547231264       -0.5878925291
 H          6.3874545371       -1.0270411304       -1.1292225702
 H          4.9663892123       -0.1749729627       -0.5448517852
 C          5.7419373961       -1.6359916475        0.8397488539
 H          5.5467631678       -2.7061125727        0.9186923614
 H          6.8029952708       -1.4847093060        1.0492791784
 C          4.9638376598       -0.8972452855        1.9302280255
 H          5.0871164282        0.1811399100        1.8013753838
 H          5.3989821893       -1.1621703867        2.8977029007
 C          3.4628508428       -1.2051665617        2.0042037999
 H          3.3113768763       -2.2854781118        2.0531996738
 H          3.0798782613       -0.7630618293        2.9289222238
 H          4.3887466078       -1.6442562653       -2.3801953755
 H          5.1104770961       -3.0418344354       -1.5720845228
 H          2.5952142203       -2.9427021528       -1.4815982303
 H          3.3712767637       -3.0731337963        0.1085300190
 O          1.7698207178       -0.6382634607       -1.3146599292
 C          1.1016840252        0.5640681085       -1.1404547427
 O          0.4419607029        0.9333570707       -2.1274829141
 O          2.0318517200        1.2054783785        2.3027383109
 C          0.5029124960        2.5340496023        0.2880168989
 C         -0.9804425677        2.2964576340        0.1544861667
 C         -1.8030026547        2.9898736898       -0.7219426108
 C         -3.1483885191        2.6746298186       -0.8188574441
 C         -3.7022896289        1.6729215912       -0.0433515577
 C         -2.8889381793        0.9825819290        0.8464629964
 C         -1.5438552133        1.2975372598        0.9404321808
 H         -0.9111004103        0.7528491258        1.6307094686
 N         -3.4408960297       -0.0502686902        1.6381915908
 S         -3.9964332841       -1.3855231078        0.7909642729
 O         -5.1706730185       -1.0079466551        0.0473626619
 O         -4.1724605661       -2.4242949837        1.7805780260
 C         -2.6741643070       -1.8152333121       -0.3252348001
 C         -2.6383960043       -1.2485786382       -1.5832623737
 C         -1.5842144608       -1.5584349600       -2.4267613027
 C         -0.5897544015       -2.4236129204       -1.9993386834
 C         -0.6339951736       -2.9763951713       -0.7287536965
 C         -1.6831299558       -2.6664823782        0.1208460211
 H         -1.7587751410       -3.0827861457        1.1130108133
 H          0.1464884378       -3.6422616906       -0.3957392262
 H          0.2289536131       -2.6572578487       -2.6613663146
 H         -1.5318933451       -1.1136835298       -3.4069471717
 H         -3.4324363392       -0.5843072255       -1.8827317039
 H         -2.8113211480       -0.3631332207        2.3645582379
 H         -4.7428591264        1.4024140366       -0.1212613164
 H         -3.7741556364        3.2163228317       -1.5118019566
 H         -1.3904114881        3.7697716533       -1.3401076466
 H          0.7101961313        2.8284526701        1.3274285179
 C          1.0418002287        3.6016325917       -0.6390326024
 C          0.9177942788        5.0485924695       -0.2690016307
 C          2.2560347918        4.3758987242       -0.2255131385
 H          2.9874466253        4.6295403958       -0.9781484033
 H          2.6850912205        4.1503214449        0.7400572028
 H          0.7321623528        5.7680200733       -1.0520446861
 H          0.4389079298        5.2852068652        0.6690979205
 H          0.9554643357        3.3301122693       -1.6847554563
