  62
        -98.93473451
 C         -2.5505968799       -0.5231321338        0.4089035861
 C         -2.8596188932        0.8497634919        0.2257647705
 C         -4.1404152679        1.1501278813       -0.4208181427
 C         -4.9310292124        0.1407708856       -0.8274804166
 C         -6.2568870031        0.2784454752       -1.5254895547
 C         -7.4421420797        0.5008972499       -0.5760457306
 C         -7.5102038906        1.8869863888        0.0663383115
 H         -7.4415913027        2.6495111365       -0.7101205895
 H         -8.4960600164        1.9783925112        0.5266364555
 C         -6.4403963646        2.1421257522        1.1372674990
 H         -6.9050782573        2.5969758831        2.0150086803
 H         -6.0129018553        1.1896708462        1.4590875698
 C         -5.3070378957        3.0674449257        0.6942069011
 H         -5.7049273662        4.0649417174        0.4949664969
 H         -4.5900467710        3.1482483632        1.5151043859
 C         -4.5488190996        2.5865796282       -0.5499800701
 H         -3.6383954257        3.1826000298       -0.6496082078
 H         -5.1594832399        2.7291306437       -1.4413680842
 H         -8.3558901966        0.3469724198       -1.1546880108
 H         -7.4114862765       -0.2621229471        0.2052145147
 H         -6.2079736791        1.0950087164       -2.2464889970
 H         -6.4206260933       -0.6552508297       -2.0678871026
 O         -4.5900828712       -1.1627146636       -0.6601579288
 C         -3.4045292963       -1.5347035181       -0.0330737744
 O         -3.2560499602       -2.7669418728        0.0525198768
 O         -2.0961464846        1.7822669675        0.5950383165
 C         -1.2334837447       -0.8297645262        1.0983372906
 C         -0.1214832767       -0.9751298543        0.0902535904
 C         -0.2415345890       -1.8330364830       -0.9984139282
 C          0.7923729340       -1.9572319659       -1.9087249344
 C          1.9590252888       -1.2282829634       -1.7585210661
 C          2.0879452853       -0.3660530318       -0.6780735208
 C          1.0513380136       -0.2502957037        0.2408337215
 H          1.1496390276        0.4307057095        1.0754494258
 N          3.2589775493        0.3972304194       -0.5319086917
 S          4.7335527969       -0.3786166469       -0.8168857614
 O          4.9764239246       -0.3909626758       -2.2374370597
 O          4.7456436363       -1.6675867557       -0.1624404385
 C          5.8650241993        0.7406254535       -0.0168121488
 C          6.2702480148        0.4797390541        1.2784589637
 C          7.1286240142        1.3702415804        1.9039128509
 C          7.5616130005        2.5013724659        1.2283916090
 C          7.1462474979        2.7491015734       -0.0716727794
 C          6.2891869059        1.8623230988       -0.7036611200
 H          5.9474613859        2.0087594375       -1.7149651744
 H          7.4875572295        3.6282868992       -0.5939042699
 H          8.2295425799        3.1927409661        1.7174578008
 H          7.4559124724        1.1787766928        2.9131558236
 H          5.9155421683       -0.4165150842        1.7618471600
 H          3.2759435108        0.9115315632        0.3382263824
 H          2.7713485641       -1.3197990671       -2.4614921551
 H          0.6892329215       -2.6301067242       -2.7471862689
 H         -1.1495231636       -2.4048194334       -1.1189016526
 H         -1.0175482836        0.0718852854        1.6937560263
 C         -1.3129091264       -1.9999241999        2.0686344360
 C         -0.6497635311       -3.3211279966        1.8385138878
 C         -0.1088684015       -2.3867222157        2.8761131544
 H         -0.2401517740       -2.6335351717        3.9186478734
 H          0.8211486338       -1.8854069361        2.6523365881
 H         -1.1793424627       -4.2063841686        2.1555994546
 H         -0.0812325166       -3.4594315797        0.9323544978
 H         -2.2694741697       -2.0322387208        2.5803890329
