  62
        -98.92925539
 C         -2.3493950401        0.3308061345       -0.9534856507
 C         -3.4086190484        0.9800754017       -0.2729656716
 C         -4.7154608687        0.2927002946       -0.2955181102
 C         -4.8436514996       -0.8782817454       -0.9399121811
 C         -6.0799893503       -1.7232488576       -1.1212594405
 C         -6.9941208456       -1.9142363870        0.0970980680
 C         -6.2732361335       -1.9417315322        1.4526696058
 H         -6.5956019351       -2.8247649861        2.0076265829
 H         -5.1956640696       -2.0277189446        1.3019271783
 C         -6.5719962995       -0.7114826323        2.3129745765
 H         -7.6388389637       -0.4876373876        2.2453452710
 H         -6.3538759218       -0.9515120306        3.3563848663
 C         -5.7745842409        0.5436142335        1.9611530951
 H         -4.7260317395        0.4049699965        2.2379788158
 H         -6.1589688729        1.3676787158        2.5669098977
 C         -5.8142091862        0.9598403980        0.4815108057
 H         -6.7904274416        0.7673408900        0.0435596693
 H         -5.6124562840        2.0330693515        0.4287967188
 H         -7.7487107798       -1.1290377004        0.1128294116
 H         -7.5245525179       -2.8561904910       -0.0523856373
 H         -6.6637427033       -1.2984477847       -1.9431029036
 H         -5.7106956785       -2.6947561276       -1.4583318947
 O         -3.7959175546       -1.4680870361       -1.5846233404
 C         -2.5403427672       -0.8908205608       -1.6023602261
 O         -1.6855637132       -1.5503850036       -2.2298198220
 H          1.5594108472       -0.1155521805       -1.0461109051
 C          1.1774055823        0.0126370826       -0.0437252817
 C         -0.1065307545        0.4978930556        0.1536850620
 C         -0.5809786729        0.6250536198        1.4556599653
 C          0.2202842724        0.2814080637        2.5291807508
 C          1.5119224043       -0.1730984340        2.3291760841
 C          1.9927345473       -0.3099357495        1.0323498554
 N          3.2922969732       -0.7797761842        0.7888872629
 S          4.1332640807       -0.1139006765       -0.5167679497
 O          3.8909864999        1.3092525599       -0.5808303866
 O          3.8203513922       -0.8686561722       -1.7042931833
 C          5.8161277401       -0.4360057685       -0.0243356612
 C          6.3497393346       -1.6891343839       -0.2600389683
 C          7.6476703984       -1.9514411194        0.1486935945
 C          8.3856510985       -0.9628097876        0.7829003149
 C          7.8370228778        0.2902611060        1.0109348921
 C          6.5390725762        0.5593047393        0.6057919484
 H          6.0743590817        1.5209480309        0.7532866052
 H          8.4143307315        1.0575684078        1.5009482142
 H          9.3960106836       -1.1695215505        1.0986541918
 H          8.0786488125       -2.9233544009       -0.0297374552
 H          5.7417502499       -2.4216153469       -0.7651297604
 H          3.8593539124       -0.8303656654        1.6240843033
 H          2.1407247746       -0.4260172427        3.1692936240
 H         -0.1598717468        0.3846513200        3.5344668211
 H         -1.5762350348        1.0103443378        1.6161307543
 C         -0.9415324070        0.8951555025       -1.0362872337
 H         -0.4913945790        0.4163418798       -1.9217367805
 C         -0.9130867240        2.3987005672       -1.2824453721
 C         -0.4979041985        3.4018594538       -0.2534243949
 C          0.4001309694        3.1127685092       -1.4163780841
 H          0.5032857452        3.8588247667       -2.1902503933
 H          1.3036530050        2.5487479478       -1.2299114190
 H         -1.0324404843        4.3389837787       -0.2263839870
 H         -0.2029212263        3.0420834967        0.7193918637
 H         -1.7022908930        2.7075050530       -1.9611602040
 O         -3.2979044087        2.0796868171        0.3247893012
