  62
        -98.94081651
 C         -2.3812106885        0.5933057168        0.0775777133
 C         -3.6260900126        0.9781975224       -0.4759814703
 C         -4.6161377517       -0.0938293256       -0.6397861358
 C         -4.2850663175       -1.3519720916       -0.2955710778
 C         -5.2138017519       -2.5290914582       -0.3609404776
 C         -5.9684336761       -2.7164190371        0.9629738327
 C         -6.6128307248       -1.4360469325        1.4944399369
 H         -7.1393312489       -1.6955604730        2.4153996991
 H         -5.8267351379       -0.7265004563        1.7625457147
 C         -7.5896616173       -0.7644751448        0.5191733535
 H         -7.8940745280       -1.4761072880       -0.2491243084
 H         -8.4885985308       -0.4750448409        1.0674974355
 C         -7.0485917464        0.5009451471       -0.1486461621
 H         -6.6577033128        1.1793424226        0.6138126716
 H         -7.8818728327        1.0082775738       -0.6419538323
 C         -5.9573108329        0.2826591393       -1.2041865299
 H         -6.2919447900       -0.4596690602       -1.9316526008
 H         -5.8058120809        1.2317384972       -1.7268038608
 H         -6.7357478059       -3.4788949662        0.8171516636
 H         -5.2639374430       -3.0822750111        1.7135102342
 H         -5.9199933397       -2.3830825061       -1.1760479335
 H         -4.6212897319       -3.4233811435       -0.5614174155
 O         -3.0676951550       -1.6892184674        0.2021938972
 C         -2.0873619687       -0.7293450980        0.4082135331
 O         -1.0251137853       -1.1748985440        0.8835795383
 H          1.3033627877        1.1380435839        1.0054746979
 C          1.1419443238        1.0892781018       -0.0599590277
 C         -0.1190115792        1.3306913129       -0.5780205812
 C         -0.2988345580        1.2481147176       -1.9569570656
 C          0.7560221359        0.9277443662       -2.7881892680
 C          2.0160908531        0.6872652788       -2.2667570850
 C          2.2065799000        0.7654702535       -0.8948443356
 N          3.4867765042        0.5612478358       -0.3435934463
 S          4.4431222641       -0.7026011349       -0.9246858078
 O          4.9103719754       -0.3581651604       -2.2441387849
 O          3.7463352980       -1.9651682107       -0.8103371020
 C          5.7985128717       -0.6268876941        0.2297114808
 C          5.8016415297       -1.4615044924        1.3309671823
 C          6.8476704178       -1.3721936584        2.2361779919
 C          7.8645461318       -0.4526064726        2.0275919346
 C          7.8473599258        0.3782976242        0.9171127049
 C          6.8054588251        0.2932054429        0.0075867681
 H          6.7537298407        0.9112924427       -0.8732611857
 H          8.6410028827        1.0902559847        0.7576632922
 H          8.6765196107       -0.3852863166        2.7343186218
 H          6.8649316659       -2.0187480539        3.0988184383
 H          4.9942828867       -2.1668719069        1.4491707832
 H          3.4503606672        0.5205905101        0.6666490795
 H          2.8441395109        0.4279951859       -2.9056330585
 H          0.6002609415        0.8626637708       -3.8549002585
 H         -1.2832041241        1.4317017126       -2.3660852009
 C         -1.3148036655        1.6549621453        0.2829388194
 H         -1.7585953269        2.5885506571       -0.0921471498
 C         -0.9968581470        1.8225078576        1.7531671920
 C         -0.3905140939        3.1013080828        2.2466570015
 C         -1.8168556809        2.7746527224        2.5691955402
 H         -2.0681947413        2.4998911113        3.5826948477
 H         -2.5966125322        3.3214113133        2.0595446903
 H          0.3373473989        3.0547339735        3.0424944575
 H         -0.1993766343        3.8746812219        1.5183811835
 H         -0.6954021482        0.8943116758        2.2256810142
 O         -3.8944371464        2.1611976324       -0.8181909822
