  62
        -98.93526348
 C         -2.2860346012       -1.1167218801       -0.5413003586
 C         -3.4057848053       -0.7471524626        0.2453438130
 C         -4.0374256285        0.5558445260       -0.0343331608
 C         -3.5198178502        1.3250935417       -1.0097267778
 C         -3.9536578176        2.6975423680       -1.4519521532
 C         -3.5153488560        3.7997463048       -0.4755655377
 C         -3.7606966473        3.4848251064        0.9975351222
 H         -3.2175883133        2.5759556101        1.2644287169
 H         -3.3307347709        4.2996643878        1.5862448746
 C         -5.2274311534        3.3408267465        1.3976662204
 H         -5.7597385079        4.2595505783        1.1420292862
 H         -5.2551448295        3.2327710358        2.4849148760
 C         -5.9773132175        2.1548173750        0.7857369943
 H         -6.2781429133        2.3627745038       -0.2375946858
 H         -6.8992573685        2.0231218081        1.3593649155
 C         -5.2288308011        0.8275802629        0.8522365082
 H         -4.8881425391        0.6572741435        1.8799692288
 H         -5.9369311373        0.0158329747        0.6468237737
 H         -2.4421238603        3.9614689046       -0.6059827241
 H         -4.0315897775        4.7230769486       -0.7441244938
 H         -3.4771558647        2.8796414755       -2.4178124875
 H         -5.0287881589        2.7208870683       -1.6024000371
 O         -2.4390030468        0.9322967383       -1.7404541486
 C         -1.7927199872       -0.2720079207       -1.5345912901
 O         -0.8247160325       -0.4524861305       -2.3019604033
 O         -3.8718956829       -1.4836633521        1.1563659143
 C         -1.6400476273       -2.4573867173       -0.2291129506
 C         -0.3981187013       -2.2462269951        0.6036580126
 C         -0.3842841865       -2.5721249779        1.9549484289
 C          0.7401682967       -2.3346678180        2.7263255102
 C          1.8717277107       -1.7657149185        2.1693313813
 C          1.8626106713       -1.4268743656        0.8227139158
 C          0.7395587413       -1.6775587951        0.0485369104
 H          0.7330541374       -1.3905512480       -0.9925972437
 N          3.0077696695       -0.8310629882        0.2384448268
 S          3.3822068885        0.7136822914        0.8189054507
 O          3.6614731285        0.6167778876        2.2289500712
 O          2.3529403137        1.6597368254        0.4393511895
 C          4.8865333547        1.0444024808       -0.0760667070
 C          4.8322762396        1.7746935035       -1.2473069536
 C          6.0044712259        1.9979411153       -1.9527281743
 C          7.2028938436        1.4860744708       -1.4788469902
 C          7.2406252280        0.7532357558       -0.3018493452
 C          6.0725790860        0.5275348758        0.4085473800
 H          6.0539605890       -0.0284621798        1.3310064455
 H          8.1747503427        0.3581817314        0.0634215277
 H          8.1131228661        1.6616078858       -2.0301716260
 H          5.9773374201        2.5686051457       -2.8671330763
 H          3.8792011458        2.1597041477       -1.5744676860
 H          2.8834259513       -0.7503686133       -0.7641860594
 H          2.7448388562       -1.5559116328        2.7645298836
 H          0.7351283693       -2.5925968071        3.7746715315
 H         -1.2719387583       -2.9954756336        2.4027759237
 H         -2.3726139780       -2.9889758414        0.3928403172
 C         -1.3600913338       -3.2925899213       -1.4622044024
 C         -1.1553184633       -4.7685709130       -1.3054633970
 C         -2.4040902221       -4.2493150304       -1.9509209024
 H         -2.5275100141       -4.3747582000       -3.0161274621
 H         -3.3285101431       -4.3069623298       -1.3949794144
 H         -0.4188401275       -5.2549119989       -1.9262750625
 H         -1.2329291823       -5.1791623140       -0.3101666472
 H         -0.7732408432       -2.7777256960       -2.2113504501
