  62
        -98.94493240
 C          1.9709390690        0.8450621803        0.0491100406
 C          2.2744572992       -0.1110375795        1.0454438007
 C          2.3447577394       -1.5043510696        0.5950453008
 C          2.0851511393       -1.8026880098       -0.6911697191
 C          2.0602898695       -3.1832960398       -1.2902171390
 C          3.4384954095       -3.7174906997       -1.7040493990
 C          4.3563832997       -4.1142438394       -0.5471697891
 H          3.8242467398       -4.7935065994        0.1193837011
 H          5.1933928097       -4.6673237893       -0.9776579191
 C          4.9083492896       -2.9285703692        0.2562920607
 H          4.7836587694       -2.0090680893       -0.3200327794
 H          5.9800412696       -3.0641852491        0.4171702707
 C          4.2645909297       -2.7399371592        1.6299032308
 H          4.7024276096       -1.8534002591        2.0954672206
 H          4.4912037599       -3.6003980991        2.2631738709
 C          2.7422536296       -2.5503202694        1.5925596609
 H          2.2480753598       -3.4958508895        1.3686362711
 H          2.4110889497       -2.2098074493        2.5770049609
 H          3.2708134096       -4.5994509198       -2.3263958489
 H          3.9329720393       -2.9635939397       -2.3206874892
 H          1.5939093196       -3.8744898898       -0.5870694388
 H          1.4299344294       -3.1194583700       -2.1800282089
 O          1.7866199891       -0.8548304499       -1.6190383392
 C          1.7168610189        0.4857220601       -1.2747615993
 O          1.4378560187        1.2462763699       -2.2222291094
 O          2.4694369493        0.1866417906        2.2564029106
 C          1.8160581888        2.3017417903        0.4455856704
 C          0.4155162687        2.7607620601        0.1192723005
 C          0.1242122385        3.9895480100       -0.4585102996
 C         -1.1834306216        4.3246639797       -0.7662320095
 C         -2.2196848615        3.4438411896       -0.5190662993
 C         -1.9400641912        2.2195808597        0.0787295508
 C         -0.6352579411        1.9002273799        0.4115831407
 H         -0.4315796510        0.9447520300        0.8742877108
 N         -2.9668383111        1.3026106496        0.3689650610
 S         -2.6152993908       -0.3448978204        0.2334509112
 O         -1.9819573606       -0.7861726801        1.4520633512
 O         -1.9044569209       -0.6141159404       -0.9962756689
 C         -4.2693536407       -1.0083215706        0.1537184614
 C         -4.8068909808       -1.3550774209       -1.0711477085
 C         -6.1059376907       -1.8366134011       -1.1211195283
 C         -6.8421636206       -1.9587361910        0.0476339218
 C         -6.2885143605       -1.6077347208        1.2701089917
 C         -4.9899556006       -1.1274067606        1.3272973715
 H         -4.5129258806       -0.8510160804        2.2530296914
 H         -6.8625516404       -1.7069049508        2.1770855817
 H         -7.8529819205       -2.3323807112        0.0056792719
 H         -6.5370277408       -2.1135088012       -2.0696036983
 H         -4.1929956809       -1.2487120109       -1.9513508486
 H         -3.8341826511        1.5301411694       -0.0989110489
 H         -3.2348463615        3.6967546094       -0.7847059392
 H         -1.3955941018        5.2793706496       -1.2231463696
 H          0.9220565883        4.6787533100       -0.6818850898
 H          1.9411123289        2.3228631405        1.5392297204
 C          2.8966031786        3.1536651304       -0.1866586798
 C          3.3885601585        4.3890345206        0.5052435100
 C          4.2590263387        3.1716107107        0.4370511201
 H          5.1225603886        3.1871166607       -0.2107133500
 H          4.3975845388        2.5881685908        1.3357041901
 H          3.6588756783        5.2435072505       -0.0965503101
 H          2.9433995685        4.6394773506        1.4562291701
 H          2.8399602085        3.1563298703       -1.2695330698
