  62
        -98.92842625
 C         -2.3125864628       -1.3980550509       -0.0577686277
 C         -2.2780606300        0.0149969591       -0.0131834979
 C         -3.5848528703        0.7076995411       -0.0211729176
 C         -4.7158504049       -0.0189234358       -0.0088306835
 C         -6.1480448895        0.4531540426       -0.0211870360
 C         -6.4953764126        1.6315561027        0.9015488356
 C         -6.7874689479        2.9298187037        0.1471362893
 H         -7.4172131132        3.5644174102        0.7745793396
 H         -7.3601253479        2.6884926718       -0.7507141215
 C         -5.5561185779        3.7451295270       -0.2440331010
 H         -5.1232383609        4.1987124763        0.6501872578
 H         -5.8902245797        4.5588965335       -0.8919221369
 C         -4.4570180753        2.9637120578       -0.9668305309
 H         -3.8562730121        3.6778413926       -1.5343363498
 H         -4.8907206499        2.2712556111       -1.6875220556
 C         -3.5123053033        2.2104524568       -0.0178938489
 H         -3.6488345153        2.5675153550        1.0070336104
 H         -2.4727989318        2.4377376590       -0.2759050922
 H         -5.6954668828        1.7845122715        1.6242539237
 H         -7.3908322314        1.3606907180        1.4631612314
 H         -6.4233816374        0.6950853837       -1.0507749164
 H         -6.7357614197       -0.4237580108        0.2596740422
 O         -4.6994154401       -1.3831798578       -0.0018767517
 C         -3.5189516900       -2.1007500599       -0.0267487259
 O         -3.6708202008       -3.3381216574       -0.0052653788
 H          1.5038113660       -1.2365187628       -0.5351529219
 C          1.2182363874       -1.2332301508        0.5025229062
 C         -0.0328028754       -1.6851933029        0.8914617208
 C         -0.3706061786       -1.6402702010        2.2417204160
 C          0.5137371165       -1.1333061400        3.1731588692
 C          1.7553389401       -0.6673934740        2.7789892587
 C          2.1088749090       -0.7213653603        1.4356616358
 N          3.3894877567       -0.3021858221        1.0327336096
 S          3.6736073939        0.3525104038       -0.4938620707
 O          2.8909806084        1.5500106679       -0.7013183100
 O          3.5410913905       -0.6853350825       -1.4848999788
 C          5.3966361759        0.7765259354       -0.3044038971
 C          5.7524991948        2.0823583352       -0.0256348214
 C          7.0930995818        2.3908984422        0.1451994887
 C          8.0499528715        1.3931500613        0.0371481286
 C          7.6779044618        0.0868288341       -0.2442551347
 C          6.3394975414       -0.2276991659       -0.4169298180
 H          6.0037983880       -1.2258087248       -0.6448710000
 H          8.4250105483       -0.6856577045       -0.3299985416
 H          9.0923904962        1.6356995432        0.1704309426
 H          7.3853399996        3.4060826514        0.3606296835
 H          4.9746353534        2.8262508235        0.0402644248
 H          3.8512653966        0.2531519025        1.7405398177
 H          2.4442016130       -0.2630860695        3.5052609168
 H          0.2332250527       -1.0934954483        4.2152101212
 H         -1.3470469230       -1.9935876082        2.5465165327
 C         -1.0441600388       -2.2329915900       -0.0856466319
 H         -1.3520936931       -3.2295684234        0.2737148932
 C         -0.4727109181       -2.4329329793       -1.4815387011
 C         -1.3526728193       -2.4295189738       -2.6946302964
 C         -0.3779644429       -1.3139446679       -2.4728452087
 H          0.5022365924       -1.2580442177       -3.0976195016
 H         -0.7540382879       -0.3482016285       -2.1729700261
 H         -2.4040619839       -2.2263206648       -2.5509587790
 H         -1.1485035384       -3.1453868973       -3.4764930244
 H          0.3428900308       -3.1502830887       -1.4855501213
 O         -1.2150645936        0.6885680018        0.0301025041
