  62
        -98.93495666
 C          2.1827407821        1.0811412161        0.5857483953
 C          2.1743057681        0.1657265303       -0.4939464759
 C          3.0492640396       -1.0163612065       -0.3555352404
 C          3.7401626953       -1.1954830483        0.7826237051
 C          4.7199767894       -2.2904275824        1.1022798026
 C          6.1545157642       -1.8526224398        0.7606376770
 C          6.5838862913       -2.1199908081       -0.6813697795
 H          7.5598512971       -1.6499309553       -0.8219779539
 H          6.7142064286       -3.1948606032       -0.8230855119
 C          5.6276645519       -1.5979398756       -1.7568377674
 H          5.2852435441       -0.5963519984       -1.4905614096
 H          6.1884118319       -1.5100382644       -2.6892844281
 C          4.4197917693       -2.5180874618       -1.9893811466
 H          4.5996346509       -3.4743755013       -1.4984377674
 H          4.3270878979       -2.7313542982       -3.0562964929
 C          3.0668265479       -1.9508915163       -1.5344474612
 H          2.6191071361       -1.3755863914       -2.3512639347
 H          2.3794183861       -2.7797164862       -1.3312786843
 H          6.2395659024       -0.7848792752        0.9786627513
 H          6.8470323378       -2.3766894443        1.4223479840
 H          4.6550303236       -2.4606584014        2.1791057061
 H          4.4542206422       -3.2084650632        0.5865986839
 O          3.6626544311       -0.3255417392        1.8279314926
 C          2.8907467215        0.8195468425        1.7606561390
 O          2.9049767762        1.5085134707        2.8007580983
 H         -0.3130440447        0.6295379823        1.6956106408
 C         -0.7768820431        1.0900342934        0.8304577191
 C         -0.0549539047        2.0263413939        0.0998621964
 C         -0.6524914776        2.6004724519       -1.0134859281
 C         -1.9358291133        2.2364486266       -1.3827644459
 C         -2.6503768337        1.3047009745       -0.6527933458
 C         -2.0602357088        0.7206776895        0.4605945024
 N         -2.7808356649       -0.2191898735        1.2199038074
 S         -3.5207033920       -1.4956046145        0.4169255283
 O         -3.6449301980       -2.5390268445        1.4126608854
 O         -2.8210865816       -1.8471568100       -0.7967403096
 C         -5.1423139860       -0.8676885126        0.0330685484
 C         -5.5974383439       -0.8863732510       -1.2706966891
 C         -6.8653787360       -0.3971898639       -1.5446890928
 C         -7.6513073103        0.0981629650       -0.5155549919
 C         -7.1805341964        0.1066733218        0.7891439681
 C         -5.9146296987       -0.3818218660        1.0699899455
 H         -5.5125484181       -0.3966377258        2.0692085945
 H         -7.7946109374        0.4924374724        1.5868631414
 H         -8.6366874231        0.4797424337       -0.7316217750
 H         -7.2329803270       -0.4037748251       -2.5582426489
 H         -4.9477647293       -1.2751713164       -2.0388044913
 H         -2.2742738230       -0.5598350611        2.0245220212
 H         -3.6474099121        1.0157539843       -0.9424635277
 H         -2.3858304154        2.6835325133       -2.2560641296
 H         -0.1035888075        3.3106276844       -1.6095132016
 C          1.3431900716        2.3478014584        0.5686039600
 H          1.2766993860        2.6541107518        1.6260713291
 C          1.9809374361        3.5110417326       -0.1758889878
 C          3.4715872162        3.6411161840       -0.2660305389
 C          2.6695790475        3.3441376447       -1.4955863643
 H          2.5579220284        4.1258065349       -2.2328332007
 H          2.7126903524        2.3520103342       -1.9154139774
 H          3.9085515655        4.6224499561       -0.1578571286
 H          4.0690454583        2.8486224245        0.1615052846
 H          1.4289294228        4.4339941918       -0.0275580316
 O          1.4844892695        0.3171082812       -1.5348436459
