  62
        -98.93541443
 C         -1.6172528028       -0.3043149424        0.3681146587
 C         -2.7730577181       -0.9949838187       -0.0643058265
 C         -3.8991806529       -0.1651760927       -0.5378308158
 C         -3.7799118134        1.1745083796       -0.5604141319
 C         -4.7308372677        2.2559282310       -1.0300148934
 C         -6.2043589069        1.9474988886       -1.2828290631
 C         -7.0088570433        1.5956759397       -0.0318424736
 H         -7.1056869964        2.4940959230        0.5830177237
 H         -8.0121437123        1.2971652802       -0.3437797416
 C         -6.4150196699        0.4982992248        0.8478056157
 H         -5.4538132659        0.8279918180        1.2473305325
 H         -7.0848276146        0.3542953256        1.7000522272
 C         -6.2307406546       -0.8569647597        0.1680009791
 H         -5.9539026435       -1.5778031311        0.9420982297
 H         -7.1777260148       -1.1820697372       -0.2673483281
 C         -5.1458929131       -0.9095990135       -0.9214950148
 H         -4.8514189527       -1.9547366213       -1.0534087641
 H         -5.5260104526       -0.5554220408       -1.8765755711
 H         -6.3033728914        1.1669634513       -2.0314349328
 H         -6.6419512966        2.8533238935       -1.7114412647
 H         -4.6560722823        3.0582748284       -0.2891830421
 H         -4.2968532805        2.6504598656       -1.9554761153
 O         -2.6322662747        1.7966421369       -0.1600976569
 C         -1.5444319857        1.0903601427        0.3140339794
 O         -0.5832623155        1.8063890171        0.6586339913
 H          2.1022475859       -0.1511163050        0.2776132463
 C          1.7741992102       -0.9408016957       -0.3810473434
 C          0.5091831998       -1.4862740645       -0.2186754427
 C          0.0917092493       -2.4865221188       -1.0902845108
 C          0.9313494020       -2.9294198708       -2.0953880904
 C          2.2030145948       -2.4022434040       -2.2379598355
 C          2.6279800416       -1.3997827386       -1.3741802327
 N          3.9029561227       -0.8340242940       -1.5036128695
 S          4.7619833891       -0.3390431792       -0.1576280323
 O          6.1403755408       -0.3235258242       -0.5994269408
 O          4.4743639376       -1.1631654447        0.9928316700
 C          4.2306936771        1.3356177345        0.1234620948
 C          3.8244800807        1.7234909205        1.3842006530
 C          3.4405397890        3.0387743031        1.5907017178
 C          3.4711508485        3.9388101799        0.5374026949
 C          3.8846751316        3.5343720218       -0.7228628844
 C          4.2702558323        2.2209912476       -0.9351282060
 H          4.6002981122        1.8711295006       -1.8991286826
 H          3.9050302750        4.2385190144       -1.5391562271
 H          3.1682433661        4.9610137610        0.7006617844
 H          3.1141916199        3.3539292953        2.5688519772
 H          3.8096911221        0.9899136234        2.1753393978
 H          4.4953898814       -1.2612166561       -2.2001832578
 H          2.8622769326       -2.7607333078       -3.0140314326
 H          0.5970429412       -3.7039607811       -2.7691950918
 H         -0.8972462397       -2.9027987104       -0.9770208539
 C         -0.3731544872       -0.9942462960        0.9036828178
 H          0.1859393605       -0.2159795389        1.4411189218
 C         -0.6700193883       -2.1214254248        1.8746793337
 C          0.4422466764       -2.6313478753        2.7394002317
 C         -0.6784489710       -1.8419921256        3.3457109002
 H         -1.3971142845       -2.3585372600        3.9642678763
 H         -0.4749276855       -0.8300918887        3.6653169516
 H          0.4926404259       -3.6904608911        2.9413088288
 H          1.4097654486       -2.1600412923        2.6418400735
 H         -1.3857329371       -2.8396811867        1.4980569725
 O         -2.8893051232       -2.2493406995       -0.0733667255
