  62
        -98.94017578
 C          2.0049207907        0.0881105910       -0.4813745769
 C          2.8119774046       -0.5740410245        0.4767755923
 C          4.1362293835        0.0242851340        0.7185590122
 C          4.4835324199        1.1556871902        0.0808946902
 C          5.8125547118        1.8411872172        0.2067857598
 C          6.8007056454        1.3380934813       -0.8547629228
 C          6.8860596978       -0.1854933741       -0.9463506064
 H          5.9306633426       -0.5744286100       -1.3059177790
 H          7.6355761324       -0.4239226620       -1.7041516645
 C          7.2523104459       -0.8816028837        0.3718762758
 H          8.0085472176       -1.6425308287        0.1674133098
 H          7.6962455075       -0.1613312178        1.0600237450
 C          6.0841831426       -1.5882213831        1.0621997901
 H          6.4914662705       -2.2211285189        1.8551303481
 H          5.5793200257       -2.2435499497        0.3479788839
 C          5.0338349229       -0.6721724632        1.7027564501
 H          5.5259276764        0.0517187586        2.3554284970
 H          4.3777450959       -1.2973329261        2.3154629675
 H          7.7873269661        1.7469819930       -0.6292712255
 H          6.4881345287        1.7227386186       -1.8284327874
 H          5.6603011004        2.9132033579        0.0698207681
 H          6.2133735453        1.6661391010        1.2033438979
 O          3.6650867278        1.7873670456       -0.7996194056
 C          2.4212171482        1.2662527140       -1.1076298413
 O          1.7818692488        1.9307816378       -1.9489822517
 O          2.4666194535       -1.6056981695        1.1060854173
 C          0.6224126487       -0.3989037119       -0.8847817535
 C         -0.4257771834        0.1799752692        0.0295214190
 C         -0.3373101503        0.0326571799        1.4104127518
 C         -1.3101766427        0.5645910563        2.2367910520
 C         -2.3913977996        1.2465996348        1.7057983740
 C         -2.4903697461        1.3953111324        0.3293982872
 C         -1.5109762048        0.8629486406       -0.4990401899
 H         -1.5854720519        0.9962286366       -1.5699741019
 N         -3.6116034563        2.0578608296       -0.2126675875
 S         -5.0937497492        1.3473453130        0.1316042906
 O         -6.0012791770        1.8313207992       -0.8834346028
 O         -5.4517580544        1.6338363990        1.4968935994
 C         -4.7839359805       -0.3964408543       -0.0748422050
 C         -4.7657212179       -0.9087024052       -1.3571508292
 C         -4.4231775546       -2.2380363273       -1.5433822780
 C         -4.0917394272       -3.0245699906       -0.4505259820
 C         -4.1172603960       -2.4958309256        0.8303107796
 C         -4.4661760520       -1.1687692482        1.0241426956
 H         -4.5006262319       -0.7219367633        2.0038979862
 H         -3.8594069932       -3.1105164881        1.6776002904
 H         -3.8082830796       -4.0541740764       -0.5988678934
 H         -4.4060933830       -2.6540592380       -2.5380273215
 H         -5.0303094695       -0.2643448590       -2.1805489175
 H         -3.5334023781        2.2238782892       -1.2061951073
 H         -3.1634777435        1.6606691595        2.3341746898
 H         -1.2273557193        0.4459734676        3.3065623723
 H          0.4992682558       -0.5088139877        1.8248660054
 H          0.4548628397        0.0242141973       -1.8877895772
 C          0.5281221217       -1.9145675182       -1.0097902954
 C         -0.3583860917       -2.7646187143       -0.1542274260
 C         -0.7108858732       -2.5304374670       -1.5899369487
 H         -0.6053651574       -3.3419458416       -2.2935156018
 H         -1.5407694658       -1.8703432295       -1.7948808475
 H          0.0167088928       -3.7327520050        0.1396553505
 H         -0.9600636265       -2.2825587712        0.5999128984
 H          1.4734174485       -2.3563786586       -1.3058458190
