  62
        -98.94187270
 C         -1.1572323719       -1.3802895104        0.4948940796
 C         -2.1622012216       -1.1909714402       -0.4791963506
 C         -3.3063910814       -0.3372970198       -0.0983553210
 C         -3.3100007515        0.2391484304        1.1179830789
 C         -4.3312288112        1.1773786409        1.7053521486
 C         -4.2236224807        2.5991189407        1.1334325284
 C         -4.0810477904        2.6699377604       -0.3844786816
 H         -3.1793363405        2.1315720901       -0.6837757514
 H         -3.9297531700        3.7189885603       -0.6533787918
 C         -5.2781398504        2.1495751607       -1.1773045718
 H         -5.0841723201        2.3656077405       -2.2310027218
 H         -6.1706013803        2.7063510110       -0.8832412520
 C         -5.5701354309        0.6524934508       -1.0475293416
 H         -6.2519739409        0.3834223309       -1.8594387416
 H         -6.0922660512        0.4309173611       -0.1205253416
 C         -4.3470350612       -0.2476635796       -1.1886395212
 H         -3.8047254109        0.0223128101       -2.1021458611
 H         -4.6884905315       -1.2771083995       -1.3513142811
 H         -3.3413668906        3.0746781705        1.5703384884
 H         -5.1033072305        3.1644794111        1.4466424481
 H         -5.3320777214        0.7798816412        1.5658495285
 H         -4.1355736814        1.2205656810        2.7792280186
 O         -2.2944839217        0.0597487102        2.0117618291
 C         -1.1998602619       -0.7304322202        1.7270191295
 O         -0.3432432021       -0.7795594103        2.6348521996
 H          0.5726770288        0.3490237789       -0.1393720804
 C          1.0456970288       -0.2390351914       -0.9108667302
 C          0.8573463283       -1.6138960813       -0.9359005100
 C          1.4503219982       -2.3438799817       -1.9581253398
 C          2.2005440286       -1.7023633121       -2.9290358298
 C          2.4030166791       -0.3345942022       -2.8867955699
 C          1.8190269991        0.4030710382       -1.8634911802
 N          2.0059737696        1.7906160682       -1.7580364704
 S          2.1913734795        2.4535861784       -0.2310550405
 O          0.9139161895        2.5684442989        0.4268999093
 O          2.8889222300        3.7003671081       -0.4676761905
 C          3.2672460390        1.3147396981        0.6236148999
 C          4.5768377491        1.2452939476        0.1864615602
 C          5.4381682086        0.3374430874        0.7785785505
 C          4.9762483882       -0.4887707022        1.7923273806
 C          3.6624174481       -0.4026394717        2.2238091803
 C          2.7949812685        0.5066287285        1.6370624600
 H          1.7668270785        0.5805948889        1.9572192998
 H          3.2939255978       -1.0403056315        3.0118187303
 H          5.6429028879       -1.2019108724        2.2508959908
 H          6.4620575087        0.2732443370        0.4475934607
 H          4.8999585194        1.9119577174       -0.5965415399
 H          2.6592329098        2.1836006178       -2.4197359903
 H          2.9980427494        0.1604360775       -3.6386322599
 H          2.6458185586       -2.2790874424       -3.7252530596
 H          1.3191047679       -3.4125777316       -1.9992135896
 C          0.0570471879       -2.2348773309        0.1841989799
 H          0.6837925177       -2.2046092309        1.0887617701
 C         -0.3465725825       -3.6702189108       -0.0794877399
 C          0.5860421270       -4.7906643210        0.2672101505
 C         -0.6458373931       -4.5600613505        1.0883101402
 H         -1.4626556433       -5.2612805902        1.0068458602
 H         -0.5335173731       -4.1355672803        2.0757140002
 H          1.5391846470       -4.5318132513        0.7028679606
 H          0.6137475468       -5.6563869111       -0.3771367794
 H         -0.9704849324       -3.7719020807       -0.9595266100
 O         -2.1168144216       -1.7074492704       -1.6271711305
