  62
        -98.94530047
 C         -2.1333140004       -0.9121001597        0.0694493092
 C         -2.8284919106       -0.2121124991        1.0835651287
 C         -3.5404424505        1.0000149906        0.6574916878
 C         -3.4552354303        1.3944308899       -0.6264065224
 C         -4.1666140102        2.5815184195       -1.2069748432
 C         -5.5409283801        2.1867450592       -1.7659044232
 C         -6.3881868302        1.3624410698       -0.7965357528
 H         -7.3456896002        1.1697054396       -1.2849963129
 H         -5.9073585103        0.3944962099       -0.6380050722
 C         -6.6327542204        2.0347307206        0.5616506267
 H         -6.4304773804        3.1038275106        0.4876811661
 H         -7.6866909705        1.9215069808        0.8239317066
 C         -5.8211778906        1.4443795413        1.7161794472
 H         -5.9496846607        0.3593318813        1.7365854278
 H         -6.2242361008        1.8397636519        2.6523476169
 C         -4.3182859906        1.7512459113        1.7016346273
 H         -4.1630331806        2.8272459312        1.5972000666
 H         -3.9059525408        1.4371330618        2.6652195075
 H         -6.0768895100        3.0980680991       -2.0371902738
 H         -5.3884100999        1.5987391687       -2.6738760328
 H         -4.2800353603        3.3432322000       -0.4377967937
 H         -3.5556957500        2.9848098590       -2.0165820734
 O         -2.7380914401        0.7222960093       -1.5628376819
 C         -2.0637976202       -0.4481939905       -1.2446259611
 O         -1.4547698601       -0.9654922711       -2.1992002007
 H          0.0963166494       -0.1714731890        1.3209647091
 C          0.6963225295       -0.8535654994        0.7300508896
 C          0.0932304795       -1.9801083897        0.1827105002
 C          0.8728041896       -2.8456377702       -0.5719372392
 C          2.2138023097       -2.5743467303       -0.7847462391
 C          2.8066394296       -1.4480177600       -0.2453659197
 C          2.0378420595       -0.5796949996        0.5191902096
 N          2.6351605294        0.5629421208        1.0857474591
 S          3.4430480296        1.6062088401        0.0433543686
 O          3.4194833496        2.8927080005        0.7062172878
 O          2.8903791198        1.5603967693       -1.2909025515
 C          5.1129338996        0.9881734601        0.0392356292
 C          5.7200282598        0.6555871194       -1.1557972805
 C          7.0230737898        0.1825011293       -1.1361764200
 C          7.6917645696        0.0520678200        0.0713652302
 C          7.0683592194        0.3929938908        1.2626615599
 C          5.7665556694        0.8676621808        1.2501475694
 H          5.2468800793        1.1464061813        2.1515327291
 H          7.5917103293        0.2901637613        2.1995388200
 H          8.7050935496       -0.3170894500        0.0838662906
 H          7.5090428099       -0.0823593212       -2.0614134198
 H          5.1571272299        0.7672991688       -2.0689250907
 H          2.0071918794        1.0871281411        1.6788481687
 H          3.8487715096       -1.2315421202       -0.4144536397
 H          2.8056609497       -3.2509971207       -1.3820019986
 H          0.4287738797       -3.7260886504       -1.0058887687
 C         -1.3813541905       -2.1803806895        0.4336769801
 H         -1.5295587407       -2.3065321289        1.5165676401
 C         -1.9678361804       -3.3779675900       -0.2822118093
 C         -1.8416926706       -4.7466561296        0.3152636915
 C         -3.1703995505       -4.0543667196        0.3021765809
 H         -3.9354728204       -4.4146611700       -0.3690889390
 H         -3.5556074307       -3.6649255690        1.2333823506
 H         -1.6966745405       -5.5870433300       -0.3464424580
 H         -1.3252915507       -4.8330200591        1.2591474916
 H         -1.9241338703       -3.2806129606       -1.3610810694
 O         -2.8456594408       -0.5793169184        2.2902724089
