  62
        -98.94672061
 C          1.9894514770        1.4565570427       -0.0829703940
 C          1.7164871061        0.2233588512       -0.7199817903
 C          2.8692973624       -0.6678708890       -0.9109767927
 C          4.0897099226       -0.2601131230       -0.5174817295
 C          5.3389810040       -1.0871238281       -0.6053016543
 C          5.5634783838       -1.8938519864        0.6815986839
 C          4.3292720870       -2.6625517136        1.1538539050
 H          4.6157136216       -3.2161008090        2.0506971945
 H          3.5567520324       -1.9490864693        1.4498324982
 C          3.7497350683       -3.6344605338        0.1165633548
 H          3.5225001867       -4.5803144077        0.6126544436
 H          4.4943829627       -3.8430266096       -0.6524291512
 C          2.4564916405       -3.1563746670       -0.5464547525
 H          2.0197775020       -4.0016439879       -1.0853764676
 H          1.7445898126       -2.8493848840        0.2243944869
 C          2.6094311935       -2.0041448242       -1.5476555214
 H          3.3898827791       -2.2460879681       -2.2718677847
 H          1.6627020947       -1.8992279355       -2.0861620047
 H          5.8609016881       -1.2039057681        1.4747554279
 H          6.3863101148       -2.5908127483        0.5123503486
 H          5.2650287483       -1.7578189368       -1.4591553608
 H          6.1862002363       -0.4157397557       -0.7550166365
 O          4.3181706828        0.9489324720        0.0571585655
 C          3.2763803262        1.8275461456        0.3062818860
 O          3.6171964514        2.8860897678        0.8716883929
 H         -1.8679581303        2.1279149196       -0.2824023582
 C         -1.5356537119        1.6840855480        0.6405043931
 C         -0.2048218195        1.7434328105        1.0211248512
 C          0.1721171649        1.1502075888        2.2244806552
 C         -0.7557875198        0.5052062735        3.0179110314
 C         -2.0807035989        0.4290261476        2.6231603116
 C         -2.4686778770        1.0209331909        1.4283102375
 N         -3.8126712424        0.9803833076        1.0102639530
 S         -4.1978067478        0.3164327149       -0.4793277803
 O         -3.5496814566        1.0558999253       -1.5298938762
 O         -5.6448358501        0.3024622411       -0.5066603340
 C         -3.5938569505       -1.3603449737       -0.3966317104
 C         -4.4889200503       -2.3622756251       -0.0717632623
 C         -4.0275102773       -3.6618822096        0.0555867039
 C         -2.6810841337       -3.9358084779       -0.1340138013
 C         -1.7970475441       -2.9178843359       -0.4545343769
 C         -2.2506484813       -1.6140314691       -0.5877519999
 H         -1.5706630791       -0.8146619742       -0.8366086375
 H         -0.7480207173       -3.1195614873       -0.6033241759
 H         -2.3182845561       -4.9466186314       -0.0327210655
 H         -4.7153681803       -4.4543788083        0.3031801341
 H         -5.5269098866       -2.1029386358        0.0616633661
 H         -4.4410106291        0.6051875809        1.7074639748
 H         -2.8078792115       -0.0804812216        3.2372905732
 H         -0.4462585114        0.0514486153        3.9473057909
 H          1.2097236425        1.2038758300        2.5266772226
 C          0.8551801082        2.4278073389        0.1926121081
 H          1.2884490420        3.2405867088        0.7937874369
 C          0.3333460086        3.0102574054       -1.1038124247
 C         -0.3113727513        4.3625207854       -1.1125038820
 C          1.0479922967        4.1759234415       -1.7152599082
 H          1.1473292928        4.2147022082       -2.7897295440
 H          1.9033028154        4.5669361856       -1.1830693803
 H         -1.1496234509        4.5273581578       -1.7729109389
 H         -0.3810520113        4.8893994060       -0.1727129155
 H         -0.0587921206        2.2572483486       -1.7784854645
 O          0.5696579265       -0.1208743639       -1.1063468014
