  62
        -98.94219534
 C         -1.0033166423       -1.7553375268        0.1995598596
 C         -1.6066434761       -0.9238912563        1.1758501430
 C         -2.8784294372       -0.2995451091        0.7928703949
 C         -3.3804569239       -0.5103652544       -0.4378885457
 C         -4.7136144912       -0.0324095405       -0.9485102999
 C         -4.7301146550        1.4131400082       -1.4611048062
 C         -4.6502731795        2.4845153819       -0.3739864322
 H         -4.9011985975        3.4380026442       -0.8424872310
 H         -5.4066020331        2.2877075201        0.3863021519
 C         -3.2690581185        2.6053777965        0.2833996087
 H         -2.5227014101        2.1128049772       -0.3433596092
 H         -2.9918779346        3.6586284471        0.3495705022
 C         -3.1756743454        2.0290188247        1.6953353257
 H         -3.8048764944        2.6098528594        2.3736700155
 H         -2.1399126053        2.1210627680        2.0337948558
 C         -3.5811739431        0.5543258600        1.8053224002
 H         -3.2940855037        0.1933604519        2.7963298443
 H         -4.6617100806        0.4542029845        1.6981624103
 H         -5.6640538408        1.5506225249       -2.0108031006
 H         -3.9060739603        1.5443282285       -2.1653447322
 H         -5.4611929073       -0.1466029508       -0.1622361584
 H         -4.9785277193       -0.6939611518       -1.7761787415
 O         -2.7302057965       -1.2517024776       -1.3726431905
 C         -1.5415532586       -1.9067812843       -1.0786955921
 O         -1.0892522640       -2.5796382724       -2.0227272013
 O         -1.1247521040       -0.7413833384        2.3265190710
 C          0.2323337725       -2.5480120477        0.5919133771
 C          1.4288299409       -2.1551236058       -0.2376115642
 C          1.8889975298       -2.9136327923       -1.3068731733
 C          2.9974686004       -2.5059061650       -2.0271771983
 C          3.6749482454       -1.3490670070       -1.6900224127
 C          3.2266225156       -0.5850918698       -0.6166763124
 C          2.1035390114       -0.9847024664        0.0923153349
 H          1.7615291123       -0.3891577390        0.9267178157
 N          3.9274156262        0.5681228821       -0.2445064083
 S          3.3341399374        1.7850914668        0.7073578509
 O          4.3522648482        2.8122629358        0.6350568722
 O          3.0300136774        1.3017460457        2.0310364151
 C          1.8577515136        2.4252174881       -0.0661429853
 C          1.1010775976        3.3013984840        0.6872259952
 C          0.0081107773        3.9221763764        0.1069184843
 C         -0.3158430492        3.6524406444       -1.2140699549
 C          0.4428062774        2.7594975791       -1.9528807384
 C          1.5460272990        2.1440639382       -1.3803596175
 H          2.1450227051        1.4500776298       -1.9473114569
 H          0.1847001325        2.5408900272       -2.9769488701
 H         -1.1634672272        4.1397863400       -1.6692962227
 H         -0.5833188991        4.6136544466        0.6852205927
 H          1.3855047085        3.4785443889        1.7123480683
 H          4.6614269116        0.8702928134       -0.8656897583
 H          4.5480397453       -1.0394324921       -2.2436791362
 H          3.3410847340       -3.1002075951       -2.8600467003
 H          1.3699259774       -3.8147655322       -1.5854374565
 H          0.4396438606       -2.2561787418        1.6313560970
 C         -0.0586774764       -4.0356385925        0.5558439288
 C          0.8416744789       -4.9823608014        1.2893806691
 C         -0.5420925264       -4.7162525223        1.7993908501
 H         -1.2859917718       -5.4932700207        1.7055235995
 H         -0.6538530846       -4.1113117683        2.6875006406
 H          1.0500290596       -5.9447216352        0.8476686085
 H          1.6724701651       -4.5574873810        1.8324434888
 H         -0.4867116419       -4.3648268101       -0.3835950203
