  62
        -98.94451871
 C         -2.6488040053       -1.2414787136        0.1207675372
 C         -2.5730647269       -0.2750594358       -0.9115405466
 C         -3.4273970551        0.9108302144       -0.7451265644
 C         -4.2256624795        1.0098563591        0.3326637320
 C         -5.0991837500        2.1873252227        0.6519794435
 C         -4.3577468555        3.2058358446        1.5290872967
 C         -2.9677204468        3.5752065282        1.0100768728
 H         -2.5550327938        4.3242830593        1.6894293391
 H         -2.3157398743        2.6999073560        1.0683934995
 C         -2.9489859963        4.1227831497       -0.4238588214
 H         -3.9488365839        4.4533238218       -0.7080122058
 H         -2.2956275896        4.9972487387       -0.4554356398
 C         -2.4236498014        3.1400505368       -1.4723109576
 H         -1.4601225009        2.7369052993       -1.1464030267
 H         -2.2462055986        3.6942481008       -2.3982891908
 C         -3.3533770007        1.9675356287       -1.8110809618
 H         -4.3492626353        2.3458013355       -2.0504575068
 H         -2.9509648512        1.4716578987       -2.6993188007
 H         -4.9696426767        4.1064595959        1.6043339715
 H         -4.2466632590        2.7846017293        2.5307911163
 H         -5.4212545212        2.6567809069       -0.2753313179
 H         -5.9768261474        1.8278156376        1.1916865019
 O         -4.2902652116        0.0518396251        1.2912468921
 C         -3.4938555600       -1.0769999433        1.2228887144
 O         -3.6322725410       -1.8581386521        2.1848570641
 H          0.1662610346       -1.5392599862       -1.5257481004
 C          0.4926293941       -1.5972069866       -0.4991511666
 C         -0.3724645158       -2.0844463618        0.4692570913
 C          0.0560305793       -2.1076086716        1.7929239643
 C          1.3178075927       -1.6556424216        2.1339746596
 C          2.1731517955       -1.1587990318        1.1658628881
 C          1.7482499287       -1.1174241308       -0.1548611471
 N          2.5993654572       -0.5821154549       -1.1415349302
 S          3.1650329124        0.9787560341       -0.8694111204
 O          2.2640670990        1.7334384518       -0.0285584091
 O          3.4348086046        1.5250504067       -2.1817351101
 C          4.7132655340        0.7178495669       -0.0278605784
 C          5.6641674293       -0.0701041975       -0.6466056403
 C          6.8764200819       -0.2806060976       -0.0093996948
 C          7.1174144049        0.2995203440        1.2272687670
 C          6.1542337269        1.0913413039        1.8334407295
 C          4.9387468599        1.3048305462        1.2016664089
 H          4.1574657516        1.9075496769        1.6369945885
 H          6.3432794580        1.5420350815        2.7945008980
 H          8.0616187280        0.1340521019        1.7216202123
 H          7.6280694066       -0.8954222567       -0.4776410769
 H          5.4377621053       -0.4983317853       -1.6086441473
 H          2.2051019794       -0.6434196150       -2.0704000668
 H          3.1525153673       -0.7912032231        1.4259210340
 H          1.6367081743       -1.6832661830        3.1648565670
 H         -0.6218312498       -2.4655326969        2.5551741242
 C         -1.7845592572       -2.4951745587        0.1280505817
 H         -2.1650272961       -3.1134038890        0.9515388727
 C         -1.8899430651       -3.2884451867       -1.1578572150
 C         -1.4152049855       -4.7093725442       -1.1751350399
 C         -2.8814263294       -4.4079342446       -1.2446571659
 H         -3.3984668593       -4.5652857447       -2.1793824378
 H         -3.4869877813       -4.6081799492       -0.3726871301
 H         -1.0251587964       -5.1147368081       -0.2538279821
 H         -0.9231686225       -5.0780011828       -2.0620520489
 H         -1.7421887627       -2.6941926214       -2.0498636458
 O         -1.8421559121       -0.3794347570       -1.9330108140
