  62
        -98.93586924
 C         -2.3810597166       -0.7138410049        0.2281710060
 C         -2.5174626596        0.6983746001        0.2471501473
 C         -3.7498627227        1.2478461616       -0.3319088735
 C         -4.6592085988        0.4050815658       -0.8540910805
 C         -5.9799654594        0.8175640932       -1.4354770873
 C         -7.0842032681        0.8114228888       -0.3692747930
 C         -6.7054704798        1.5482404877        0.9153393295
 H         -5.8922435212        1.0105418911        1.4083050863
 H         -7.5694101819        1.5058588351        1.5820677654
 C         -6.2905750546        3.0116553917        0.7087324007
 H         -6.7810523353        3.6253626895        1.4671918351
 H         -6.6363120937        3.3613991666       -0.2645981539
 C         -4.7874571125        3.2684216899        0.8335099532
 H         -4.4169073663        2.8360753980        1.7665750519
 H         -4.6299987852        4.3489044125        0.8897312359
 C         -3.9213285342        2.7408333368       -0.3175676243
 H         -2.9162155141        3.1556718961       -0.1952414108
 H         -4.3230930191        3.0912073538       -1.2707279687
 H         -7.3131527019       -0.2257088324       -0.1140982854
 H         -7.9807064282        1.2622400797       -0.7985400994
 H         -6.2439490528        0.1102590761       -2.2233645144
 H         -5.8838760501        1.8111230678       -1.8689469038
 O         -4.4915747677       -0.9394446827       -0.8688924117
 C         -3.3579902089       -1.5401359363       -0.3302593421
 O         -3.3649390401       -2.7802211149       -0.4222594187
 O         -1.6446447461        1.4668078249        0.7374007949
 C         -1.1128086957       -1.2805464939        0.8401071865
 C         -0.0293870331       -1.4511315786       -0.1950576861
 C         -0.2784762846       -2.0890176720       -1.4064347404
 C          0.7323989348       -2.2388651850       -2.3379504037
 C          2.0039851311       -1.7574788639       -2.0823524755
 C          2.2663144558       -1.1249578313       -0.8721446996
 C          1.2485090132       -0.9744679591        0.0601419877
 H          1.4576157625       -0.4605795886        0.9863083721
 N          3.5645687616       -0.6779012397       -0.5750739440
 S          3.7839180547        0.7095649477        0.3610606884
 O          3.5216994377        0.3842580038        1.7401323360
 O          3.0369535924        1.8136134837       -0.1984444747
 C          5.5332113804        0.9616402238        0.1259885732
 C          5.9687817394        1.8865790388       -0.8038256441
 C          7.3313481912        2.0528014668       -0.9967565452
 C          8.2299404569        1.2932334879       -0.2628856930
 C          7.7776169500        0.3692693625        0.6675404610
 C          6.4168335263        0.1992248181        0.8664607628
 H          6.0191875010       -0.4990267502        1.5842061131
 H          8.4794290508       -0.2171733554        1.2382329730
 H          9.2896121554        1.4245232059       -0.4148717186
 H          7.6858427364        2.7727986242       -1.7166095552
 H          5.2333398451        2.4606575133       -1.3444148286
 H          4.1643033007       -0.6630373546       -1.3892200470
 H          2.7899830387       -1.8735059958       -2.8130359316
 H          0.5263239636       -2.7332533876       -3.2754263236
 H         -1.2687907910       -2.4697051511       -1.6054453772
 H         -0.7679174420       -0.5023808450        1.5411193649
 C         -1.3481648589       -2.5468549177        1.6531870758
 C         -0.8637435599       -3.8997405388        1.2363780220
 C         -0.2037181829       -3.1912306103        2.3784675818
 H         -0.3666817114       -3.5554243918        3.3815349691
 H          0.7810177999       -2.7791781567        2.2125723168
 H         -1.5033524287       -4.7434159872        1.4450173247
 H         -0.3239155185       -3.9835738694        0.3067434602
 H         -2.2998650563       -2.5188444220        2.1745031026
