  62
        -98.93666441
 C         -2.4635250057       -1.0970401610       -0.0854246894
 C         -3.5762540978       -0.7471301660        0.7177381152
 C         -4.5796510343        0.1368110219        0.1032425867
 C         -4.3916730397        0.5702549637       -1.1550613005
 C         -5.2916821315        1.4442003317       -1.9925245843
 C         -5.9454910476        2.6524336269       -1.3085077795
 C         -5.0994117109        3.3138294371       -0.2107927582
 H         -4.0788372888        2.9281353553       -0.2406016751
 H         -5.0473932805        4.3873477198       -0.4015764480
 C         -5.6794859662        3.1140558129        1.1914557509
 H         -5.2723397708        3.8826178860        1.8527916936
 H         -6.7609259246        3.2605542898        1.1474236327
 C         -5.3842383622        1.7603312104        1.8358666193
 H         -4.3232655637        1.6955144105        2.0918714970
 H         -5.9433894760        1.7044054361        2.7729623212
 C         -5.7327440833        0.5309233903        0.9809912622
 H         -6.6395031484        0.6959478646        0.4042563583
 H         -5.8985176725       -0.3120613268        1.6573109204
 H         -6.1578236135        3.3808283240       -2.0929790281
 H         -6.9055745247        2.3576249765       -0.8872960906
 H         -4.6640409866        1.7867808204       -2.8187405656
 H         -6.0729859635        0.8113960799       -2.4236934141
 O         -3.2995845097        0.2162002116       -1.8894038267
 C         -2.3116306791       -0.6143827306       -1.3840706036
 O         -1.3821306830       -0.8398509698       -2.1824486661
 O         -3.7315943507       -1.1652396789        1.8958156292
 C         -1.3997819666       -2.0014405987        0.5141542987
 C         -0.1355685281       -1.1996618390        0.7001317741
 C         -0.0465519887       -0.3213002843        1.7771512384
 C          1.0792958587        0.4580008692        1.9624895881
 C          2.1381543934        0.3853339441        1.0736083832
 C          2.0587229162       -0.4849545092       -0.0044291331
 C          0.9313785824       -1.2777558309       -0.1806245799
 H          0.8798660112       -1.9413649778       -1.0294510459
 N          3.1197316692       -0.5465237467       -0.9229657827
 S          4.6785983005       -0.7484448531       -0.3409978803
 O          5.4157373006       -1.3554395090       -1.4278619856
 O          4.6858246849       -1.4610007857        0.9157725416
 C          5.2678113489        0.9147597815       -0.1013540689
 C          5.7729069091        1.2968275867        1.1259547507
 C          6.2378421474        2.5930970263        1.2853679518
 C          6.1905391949        3.4790102895        0.2200137910
 C          5.6822697978        3.0789119856       -1.0070183917
 C          5.2170541411        1.7843108304       -1.1731779813
 H          4.8172828690        1.4340218138       -2.1103412090
 H          5.6465750842        3.7707240806       -1.8332283372
 H          6.5517703223        4.4874186402        0.3462901388
 H          6.6335418949        2.9061472345        2.2382154988
 H          5.7848396278        0.5752494387        1.9272783058
 H          2.9402714506       -1.1502140791       -1.7118556797
 H          3.0178633560        0.9934896664        1.2077996179
 H          1.1340930172        1.1315565880        2.8042302083
 H         -0.8782545415       -0.2565719677        2.4651615264
 H         -1.7783942500       -2.2728386761        1.5091982715
 C         -1.2127933460       -3.2668761637       -0.2957528723
 C         -0.4743244751       -4.4228805514        0.3080925776
 C         -1.9559206213       -4.5060212431        0.0995325711
 H         -2.3317953344       -5.1514771989       -0.6801350832
 H         -2.5983013840       -4.4484262551        0.9658814844
 H          0.1693456601       -5.0136626896       -0.3260320469
 H         -0.1078029629       -4.3066233771        1.3169598107
 H         -1.0892646084       -3.0835404408       -1.3564757920
