  62
        -98.94118332
 C          1.8982902798        1.5612106520        0.1823607604
 C          2.5670974936        0.6950609459        1.0876677412
 C          3.4936984682       -0.2776181142        0.4991658481
 C          3.6849736519       -0.2920290047       -0.8320943726
 C          4.6390168393       -1.1817394040       -1.5825700817
 C          4.0859918194       -2.5776781513       -1.9004149343
 C          3.9682805196       -3.5182523634       -0.7005965545
 H          3.7784649515       -4.5185478477       -1.0948682464
 H          4.9215466994       -3.5524112480       -0.1724119486
 C          2.8448380541       -3.1510878946        0.2789677389
 H          2.1542904226       -2.4596291876       -0.2101891904
 H          2.2804298030       -4.0513727791        0.5334288292
 C          3.3233818256       -2.5271376135        1.5902418623
 H          3.9110539995       -3.2579350312        2.1499141147
 H          2.4472112153       -2.2675823680        2.1899251546
 C          4.1656670191       -1.2570510662        1.4134509100
 H          4.2739866745       -0.7783006353        2.3896153503
 H          5.1562170210       -1.5111602659        1.0363738493
 H          3.1082632784       -2.4675746479       -2.3756215822
 H          4.7584095762       -3.0351285888       -2.6298760237
 H          4.8578168496       -0.6758093045       -2.5255767662
 H          5.5669213587       -1.2780508806       -1.0176769619
 O          3.0269508655        0.5514889570       -1.6687773698
 C          2.1036633258        1.4792607456       -1.1954175757
 O          1.5612487737        2.1395224007       -2.1017845181
 O          2.4065841842        0.7464569573        2.3354212464
 C          0.9621291958        2.5877689157        0.7970748797
 C         -0.4628122203        2.0975834348        0.8287132272
 C         -1.2114075092        2.1475181974        1.9987480193
 C         -2.5220547388        1.7018360665        2.0171679665
 C         -3.1094297402        1.1918185787        0.8735126998
 C         -2.3634800145        1.1228483167       -0.2967700380
 C         -1.0514233870        1.5741138893       -0.3142414006
 H         -0.4805099305        1.5289752350       -1.2302364710
 N         -2.9408479101        0.5850154809       -1.4587792051
 S         -3.8340421251       -0.8207360148       -1.3054409223
 O         -3.6900035878       -1.5066385933       -2.5701962921
 O         -5.1845377546       -0.4916149277       -0.9217699258
 C         -3.0547130314       -1.7504178831        0.0044931737
 C         -3.8007959422       -2.1507305963        1.0943138862
 C         -3.1793554320       -2.8598138031        2.1097712004
 C         -1.8272139319       -3.1503761255        2.0202906505
 C         -1.0913944816       -2.7436777108        0.9177123608
 C         -1.7084463693       -2.0385350090       -0.1023827993
 H         -1.1594192551       -1.7116116142       -0.9719175247
 H         -0.0383513840       -2.9661689194        0.8522419370
 H         -1.3396183119       -3.6959516491        2.8125917064
 H         -3.7489761496       -3.1784970757        2.9676858321
 H         -4.8478461468       -1.8966263033        1.1255338533
 H         -2.3095790588        0.5422454660       -2.2452943032
 H         -4.1319293338        0.8504391260        0.8658609138
 H         -3.0930935322        1.7511734434        2.9313222011
 H         -0.7558474281        2.5299797219        2.9001029202
 H          1.3004081649        2.6757641566        1.8416297212
 C          1.0950249215        3.9669599541        0.1643937070
 C          0.0490267435        4.5894810249       -0.7059197265
 C          0.2742962516        5.1124402341        0.6791230978
 H          0.7469708663        6.0751165315        0.8009870913
 H         -0.4772179902        4.8899678281        1.4215889071
 H          0.3848397075        5.1752798526       -1.5480955722
 H         -0.8545615985        4.0338500303       -0.9013755306
 H          2.1249550609        4.1882942217       -0.0985288153
