  62
        -98.94084738
 C         -2.2841069601       -0.9451542200       -0.2522295013
 C         -3.6065776901       -1.1950848604        0.1883337186
 C         -4.6382368702       -0.2975350902       -0.3420471008
 C         -4.2959845103        0.6730073303       -1.2087993302
 C         -5.2360280605        1.6561724406       -1.8522169696
 C         -5.5401916206        2.8848408600       -0.9839423289
 C         -6.4528338105        2.6237596492        0.2150087110
 H         -6.7550656406        3.5977344189        0.6049206316
 H         -7.3554898505        2.1132362193       -0.1218359793
 C         -5.7971172004        1.8211485686        1.3474258005
 H         -4.7114664204        1.8392005188        1.2248918505
 H         -6.0182607104        2.2964578180        2.3057481108
 C         -6.2608592702        0.3676579085        1.4454310396
 H         -5.7086539801       -0.1140912319        2.2563093893
 H         -7.3230611902        0.3382524582        1.6976257697
 C         -6.0389669202       -0.4540968507        0.1686417492
 H         -6.7580208002       -0.1629781003       -0.5964424907
 H         -6.1890914800       -1.5092989509        0.4090389385
 H         -4.5946278206        3.3091055899       -0.6379521687
 H         -6.0217473607        3.6261790203       -1.6257705485
 H         -6.1675900104        1.1549411706       -2.1160602499
 H         -4.7501250506        1.9946202812       -2.7698585794
 O         -3.0155975704        0.8671213507       -1.6249420002
 C         -1.9758576503        0.0856729606       -1.1395126007
 O         -0.8525977003        0.4033126909       -1.5767010705
 O         -3.9083105699       -2.1205775309        0.9882464481
 C         -1.1589253400       -1.8107854002        0.2874400482
 C         -0.2017332201       -0.9437989705        1.0672675287
 C         -0.6909389601       -0.2498707512        2.1721855991
 C          0.1319087098        0.5821599984        2.9044478396
 C          1.4585127998        0.7451388388        2.5447426096
 C          1.9598051898        0.0511958595        1.4503950792
 C          1.1326138199       -0.7966046002        0.7247521687
 H          1.5411857599       -1.3146227196       -0.1254161216
 N          3.3201588898        0.1693871999        1.1035093892
 S          3.7659318697        0.3518214009       -0.5164851307
 O          3.1758687296        1.5518127411       -1.0680700200
 O          3.5212990198       -0.8797618687       -1.2210821614
 C          5.5236545597        0.5810930210       -0.3101090006
 C          6.0618221895        1.8513787211       -0.3872381199
 C          7.4251494795        2.0154668712       -0.1972280998
 C          8.2222696897        0.9125417411        0.0686268195
 C          7.6679805798       -0.3569498190        0.1416349188
 C          6.3061680898       -0.5277147991       -0.0490695313
 H          5.8325563600       -1.4946284292       -0.0104437818
 H          8.2914746899       -1.2124499591        0.3455265883
 H          9.2825856397        1.0427391011        0.2170236295
 H          7.8589305794        3.0006526912       -0.2573794293
 H          5.4039280894        2.6777797011       -0.6038949594
 H          3.7802294497        0.8878410096        1.6488514496
 H          2.1012048897        1.4039841786        3.1094078000
 H         -0.2616874802        1.1156558679        3.7566996999
 H         -1.7315234601       -0.3699306015        2.4422913991
 H         -1.6403517599       -2.5076948307        0.9894874578
 C         -0.5049199599       -2.6102206895       -0.8178675123
 C          0.2241983702       -3.8774041996       -0.4887214531
 C         -1.0901533498       -3.9336372593       -1.2060655130
 H         -1.0984618298       -4.2058459587       -2.2508339932
 H         -1.9580853597       -4.2718040397       -0.6589585232
 H          1.1237094803       -4.1083648491       -1.0390762832
 H          0.2497865403       -4.1816311202        0.5467298668
 H         -0.1092101300       -1.9868867089       -1.6127153119
