  62
        -98.94823771
 C          1.3148757539        1.1705734259       -0.0309391462
 C          2.0758572871        0.5875402549        1.0100428023
 C          2.6329240285       -0.7428535234        0.7340321127
 C          2.3692894954       -1.3346299785       -0.4451840492
 C          2.9016588804       -2.6707096528       -0.8734951763
 C          4.2342360532       -2.5260965539       -1.6221625589
 C          5.2552970777       -1.6456185841       -0.9019359575
 H          4.8828413514       -0.6191945600       -0.8717661067
 H          6.1648398904       -1.6407191218       -1.5063471816
 C          5.5923538864       -2.1021502727        0.5243017578
 H          6.6750126029       -2.0590742466        0.6600911334
 H          5.2892952669       -3.1405820153        0.6630030388
 C          4.9715371790       -1.2436361896        1.6279648542
 H          5.1949909701       -0.1898989253        1.4426474757
 H          5.4418491823       -1.5157393020        2.5766988360
 C          3.4554740527       -1.3883027440        1.8129472233
 H          3.1813259734       -0.8796624202        2.7423011345
 H          3.1933442216       -2.4438239936        1.9157639995
 H          4.0344745648       -2.0868267791       -2.6020391039
 H          4.6533573446       -3.5222547203       -1.7745767895
 H          3.0302660109       -3.3009741257        0.0045322410
 H          2.1696040762       -3.1355233472       -1.5362486194
 O          1.6152007983       -0.7547113169       -1.4123596410
 C          1.0705122177        0.5111746849       -1.2344689678
 O          0.4034370925        0.9200299577       -2.2028438193
 H         -0.7988627477        0.7867016663        1.5388226037
 C         -1.4141506914        1.4309365514        0.9265688296
 C         -0.8172376859        2.4145430241        0.1457312739
 C         -1.6309810832        3.2375988096       -0.6215879558
 C         -3.0043706277        3.0643801156       -0.6177603668
 C         -3.5913907145        2.0694690317        0.1415783708
 C         -2.7872833992        1.2461266981        0.9222520878
 N         -3.3540966156        0.2335169504        1.7216614478
 S         -2.8061056725       -1.3387001416        1.5592658427
 O         -3.7533865451       -2.1337119498        2.3100986216
 O         -1.4275973175       -1.4314374567        1.9662862826
 C         -2.9689360635       -1.6879066421       -0.1797460718
 C         -4.1428701431       -2.2382868139       -0.6566138638
 C         -4.2831020955       -2.4328746567       -2.0211939095
 C         -3.2608128957       -2.0609944268       -2.8823056857
 C         -2.0905474821       -1.5059438412       -2.3880526368
 C         -1.9416724508       -1.3203815597       -1.0234487477
 H         -1.0431107080       -0.8931462139       -0.6077817807
 H         -1.2908773402       -1.1972869344       -3.0431753027
 H         -3.3742797376       -2.2039671343       -3.9453438681
 H         -5.1896552162       -2.8675187187       -2.4105137200
 H         -4.9106784548       -2.5132898679        0.0484433201
 H         -4.3648861999        0.2387654897        1.7254539803
 H         -4.6618258937        1.9304783139        0.1371678555
 H         -3.6249188335        3.7082986413       -1.2219132827
 H         -1.1902124839        4.0124552667       -1.2264917183
 C          0.6869452685        2.5346942442        0.1911352142
 H          0.9715968828        2.8213609507        1.2148776273
 C          1.2517773376        3.5534542026       -0.7757706262
 C          1.2964722070        5.0037684576       -0.4005649434
 C          2.5625929784        4.2044042453       -0.4546820968
 H          3.2579032235        4.3890883010       -1.2597637298
 H          3.0371930887        3.9307946730        0.4766793745
 H          0.9142156063        5.2806587685        0.5703081767
 H          1.1254591092        5.7414863016       -1.1698394367
 H          1.0633627335        3.2954367471       -1.8115670312
 O          2.2795738196        1.1559913403        2.1176278774
