  62
        -98.94468514
 C         -2.0139749157       -0.7514916771        0.5633727899
 C         -1.9575986486       -0.0506761606       -0.6654616532
 C         -1.9987757224        1.4121264517       -0.5664490929
 C         -2.0264091981        1.9999556628        0.6428999655
 C         -2.0185814960        3.4814129478        0.9081511037
 C         -3.4015516848        4.1424301792        0.8246805211
 C         -3.9703283914        4.2859510534       -0.5874883322
 H         -4.8311865695        4.9538707188       -0.5192175950
 H         -3.2311266357        4.7695502540       -1.2266216898
 C         -4.4196763751        2.9644548169       -1.2261586605
 H         -4.5264394894        2.2029295732       -0.4503099324
 H         -5.4022754438        3.0967584593       -1.6842905192
 C         -3.4814795770        2.4341027210       -2.3103632347
 H         -3.4639372258        3.1289140780       -3.1528245092
 H         -3.8748426235        1.4792803561       -2.6678259766
 C         -2.0398351086        2.2035414497       -1.8381907579
 H         -1.5108300980        1.6251756754       -2.5997211216
 H         -1.5255107725        3.1557348787       -1.7081921133
 H         -3.3112078023        5.1399613154        1.2607450973
 H         -4.0977999538        3.5707967158        1.4425293597
 H         -1.3337490978        3.9694737948        0.2136789476
 H         -1.6327409707        3.6111116757        1.9218967273
 O         -2.0464091102        1.2904848977        1.8042199786
 C         -2.0430118679       -0.0948974049        1.7917589177
 O         -2.0700599615       -0.6198437421        2.9256595364
 O         -1.8789057102       -0.6171624542       -1.7872366241
 C         -1.9260180230       -2.2672754236        0.5689059858
 C         -0.6367311256       -2.6821483500       -0.0996607089
 C         -0.5434856938       -3.7162976851       -1.0215561790
 C          0.6680501164       -4.0043806717       -1.6268169607
 C          1.8002069262       -3.2651165071       -1.3391959866
 C          1.7208952820       -2.2420466967       -0.4001788972
 C          0.5152472736       -1.9770720223        0.2253679835
 H          0.4655095707       -1.1793893968        0.9536541351
 N          2.8527922767       -1.4792804358       -0.0606116232
 S          2.6222850096        0.1436830880        0.3489077025
 O          2.2609653660        0.2233931985        1.7434248755
 O          1.7257733311        0.7827130991       -0.5875453096
 C          4.2833234124        0.7567357218        0.1299726138
 C          5.2014430260        0.5654802943        1.1452536573
 C          6.5020770246        1.0085281068        0.9645662344
 C          6.8614065581        1.6308879906       -0.2218481483
 C          5.9287533720        1.8175742369       -1.2310452484
 C          4.6263969403        1.3757529583       -1.0571626672
 H          3.8643695797        1.5056672594       -1.8090408263
 H          6.2096495360        2.3047847193       -2.1507953459
 H          7.8739990456        1.9754428230       -0.3596889231
 H          7.2287135688        0.8677224448        1.7483049762
 H          4.8716774895        0.0852710647        2.0517782021
 H          3.6097083068       -1.5883899799       -0.7222861108
 H          2.7365847285       -3.4736621038       -1.8338635337
 H          0.7261029796       -4.8049809896       -2.3485893249
 H         -1.4215813969       -4.2860837021       -1.2780691210
 H         -1.8788236968       -2.5674653689        1.6265745937
 C         -3.1598195982       -2.8780340806       -0.0618433040
 C         -3.6473774080       -4.2246028130        0.3791074997
 C         -4.4087924726       -2.9909734338        0.7578495631
 H         -5.3580507567       -2.8005505906        0.2801798023
 H         -4.3590695256       -2.6499563458        1.7820455196
 H         -4.0792164939       -4.8837277061       -0.3587559633
 H         -3.0881172951       -4.7299433084        1.1519265457
 H         -3.2678853472       -2.6067811537       -1.1056853273
