  62
        -98.94556717
 C         -1.9662640510       -1.5149875125       -0.0992157306
 C         -1.6872986632       -0.2652377511       -0.7043198079
 C         -2.8152014784        0.6763611221       -0.7646339131
 C         -4.0177981620        0.2976473413       -0.2948503072
 C         -5.2352190908        1.1742625112       -0.2490383794
 C         -5.3290684301        1.9207562346        1.0891164419
 C         -4.0318193237        2.6189450932        1.4975473816
 H         -4.2246756863        3.1375715098        2.4392546412
 H         -3.2678685119        1.8640344056        1.6976158227
 C         -3.4969580843        3.6182918523        0.4625535720
 H         -4.2918621668        3.8916280135       -0.2323805233
 H         -3.1940569741        4.5298963712        0.9820179767
 C         -2.2800077447        3.1282606724       -0.3247409524
 H         -1.8597807055        3.9849787510       -0.8577029841
 H         -1.5175348443        2.7621733389        0.3671395466
 C         -2.5506087729        2.0301160258       -1.3607002994
 H         -3.3711590135        2.3323125056       -2.0145190290
 H         -1.6476298844        1.9140540996       -1.9668417978
 H         -5.5918679391        1.2021363225        1.8690474459
 H         -6.1340033316        2.6548142462        1.0198027794
 H         -5.1972206895        1.8851122052       -1.0720294781
 H         -6.1184257673        0.5439198910       -0.3659216506
 O         -4.2533027537       -0.9259814705        0.2456393890
 C         -3.2318854501       -1.8525530006        0.3779344884
 O         -3.5704140197       -2.9207525251        0.9274392877
 H          1.7964307194       -2.3159554564       -0.7025015506
 C          1.5861144950       -1.8588007784        0.2515241831
 C          0.3046454026       -1.9030852306        0.7747396286
 C          0.0705251559       -1.3038037666        2.0099476176
 C          1.0880453831       -0.6666381573        2.6929636594
 C          2.3638177550       -0.6098769355        2.1586355378
 C          2.6085625022       -1.2082316555        0.9310519036
 N          3.9010963842       -1.1486847810        0.3752930877
 S          4.6057631808        0.3640906303        0.2241805270
 O          5.6608989338        0.1890496745       -0.7489158992
 O          5.0169608180        0.8289795431        1.5252635148
 C          3.3261082108        1.4174611458       -0.4307730412
 C          2.6382184730        2.2679148195        0.4096000103
 C          1.6187899620        3.0448341959       -0.1157179843
 C          1.3045164376        2.9547034269       -1.4618647439
 C          2.0027206689        2.0930293705       -2.2920965520
 C          3.0216277078        1.3130207343       -1.7730420867
 H          3.5929899763        0.6375594104       -2.3898094035
 H          1.7502110523        2.0213991096       -3.3378311525
 H          0.5084651864        3.5588953279       -1.8672435194
 H          1.0701440677        3.7151711649        0.5267822690
 H          2.9154228993        2.3122816895        1.4501913338
 H          3.9831987834       -1.6525473910       -0.4964481118
 H          3.1685559731       -0.1075843742        2.6704154074
 H          0.8878405108       -0.2053866923        3.6484740638
 H         -0.9292045030       -1.3371227288        2.4225717501
 C         -0.8552295561       -2.5395323162        0.0495990799
 H         -1.2599193842       -3.3441159324        0.6799776362
 C         -0.4950408102       -3.1156165591       -1.3037814119
 C          0.1140303061       -4.4812545031       -1.4040582568
 C         -1.3017291147       -4.2573408943       -1.8416744308
 H         -1.5257199927       -4.2783874436       -2.8977136450
 H         -2.0994996214       -4.6367455160       -1.2198241132
 H          0.8605262881       -4.6615412908       -2.1631340228
 H          0.2807611609       -5.0229838088       -0.4852708647
 H         -0.1753597216       -2.3566585235       -2.0089488829
 O         -0.5612354713        0.0478623094       -1.1683098887
