  62
        -98.93184511
 C          2.5019190326        1.0948550540        0.3901644256
 C          2.6181942477       -0.0968647325        1.1458951499
 C          3.5582261402       -1.1016934532        0.6340109706
 C          4.2308533040       -0.8606177551       -0.5058966216
 C          5.2767163969       -1.7396621665       -1.1398643780
 C          4.8005781742       -3.1105702715       -1.6572039757
 C          4.9674268999       -4.2582489485       -0.6536069843
 H          5.3065999518       -5.1467741041       -1.1900191800
 H          5.7585978578       -3.9968974459        0.0502244294
 C          3.7065010266       -4.6570726205        0.1186802552
 H          3.0640550738       -5.2543676008       -0.5322769858
 H          4.0122419146       -5.2929933232        0.9522692988
 C          2.8628833751       -3.5026563408        0.6599446103
 H          2.3052424977       -3.0401145472       -0.1581317076
 H          2.1199602281       -3.9158484815        1.3450942853
 C          3.6662413325       -2.4009956513        1.3783008679
 H          4.7093698517       -2.6939819739        1.4871843080
 H          3.2519369762       -2.2261547538        2.3732188270
 H          3.7638660316       -3.0357290803       -1.9844346228
 H          5.4013587882       -3.3398881628       -2.5387713101
 H          6.0894166852       -1.8857132094       -0.4245166231
 H          5.6704608060       -1.1608640882       -1.9779099586
 O          4.0615488251        0.2830260261       -1.2232473179
 C          3.1884045625        1.2788815370       -0.8105506839
 O          3.1294042951        2.2527461554       -1.5836268251
 O          1.9722008790       -0.3074112605        2.2084795205
 C          1.5556202776        2.1734798040        0.8912434470
 C          0.3402269344        2.2091970644       -0.0029432713
 C          0.0979114890        3.2142626088       -0.9291465028
 C         -1.0254611186        3.1617021586       -1.7369935778
 C         -1.9267629415        2.1182112400       -1.6363717458
 C         -1.6973574276        1.1107152334       -0.7072382761
 C         -0.5717169124        1.1649612647        0.1012294245
 H         -0.3849090208        0.3796748963        0.8231116647
 N         -2.6044713267        0.0386264555       -0.6013265449
 S         -4.2480327096        0.4366559754       -0.5972170670
 O         -4.6813062075        0.5924217476       -1.9633266503
 O         -4.4811914993        1.5688750041        0.2710999236
 C         -4.9658835592       -1.0379801052        0.0987114094
 C         -5.2213209857       -2.1128798699       -0.7314270494
 C         -5.7621354733       -3.2660007097       -0.1852878501
 C         -6.0355897230       -3.3252354432        1.1732604985
 C         -5.7742374400       -2.2379424252        1.9934737166
 C         -5.2326426008       -1.0818079738        1.4540371013
 H         -5.0229367668       -0.2091879999        2.0519041288
 H         -5.9904689840       -2.2857096050        3.0486461825
 H         -6.4583740221       -4.2232013057        1.5953657130
 H         -5.9695186032       -4.1126869445       -0.8195604809
 H         -5.0019484964       -2.0177810838       -1.7820541697
 H         -2.3776077746       -0.5699466473        0.1736990850
 H         -2.8080169262        2.0736484580       -2.2560515537
 H         -1.2021798115        3.9469301860       -2.4568538894
 H          0.7943561709        4.0300464283       -1.0287657957
 H          1.2295906471        1.8302006351        1.8832913119
 C          2.2475468926        3.5100208154        1.0460806508
 C          1.6111390308        4.5717000706        1.8908066519
 C          2.8457460858        3.8716167357        2.3712655592
 H          3.7772641390        4.4172208193        2.3835352879
 H          2.7484836713        3.1567207620        3.1752674996
 H          1.6930952038        5.6004076378        1.5749996719
 H          0.6724034964        4.3321103029        2.3672910777
 H          2.7858084244        3.8191783947        0.1586226340
