  62
        -98.94477435
 C          1.1657165585        1.7733595765       -0.6768148482
 C          1.2134449639        0.4496995188       -1.1830227376
 C          2.5041477302       -0.2456844349       -1.0348416837
 C          3.5417672782        0.3872330234       -0.4613319276
 C          4.9032535490       -0.2058066257       -0.2412783706
 C          5.0194723034       -0.8592391973        1.1416842459
 C          3.8743918473       -1.8172241846        1.4702752503
 H          4.0884924443       -2.2593701323        2.4461314581
 H          2.9445687399       -1.2521560711        1.5759222492
 C          3.6638312304       -2.9337704703        0.4385868078
 H          3.5102042940       -3.8746743644        0.9715517025
 H          4.5582634418       -3.0493849865       -0.1754484365
 C          2.4435828331       -2.7292622195       -0.4615923852
 H          1.5825032099       -2.4796148119        0.1647521294
 H          2.2302175938       -3.6779246191       -0.9635370844
 C          2.5864585531       -1.6553683990       -1.5488760632
 H          3.5158839528       -1.8127830978       -2.1011024316
 H          1.7487844529       -1.7678537798       -2.2436291793
 H          5.9690758993       -1.3958117854        1.1908460772
 H          5.0342460701       -0.0714119065        1.8984008734
 H          5.1019151218       -0.9405990880       -1.0191315453
 H          5.6397897501        0.5964538698       -0.3155675581
 O          3.4588951996        1.6567791480        0.0138075329
 C          2.2720473573        2.3648716120       -0.0623009244
 O          2.3309533902        3.5105129854        0.4309184691
 O          0.2523751003       -0.1314312657       -1.7469269775
 C         -0.0826296907        2.6421859638       -0.7283835961
 C         -0.9465310001        2.3768423249        0.4768916572
 C         -1.3651032529        3.4077390398        1.3094388852
 C         -2.1322072626        3.1353476851        2.4289704428
 C         -2.4949685967        1.8366504162        2.7372049119
 C         -2.0856529084        0.7986755172        1.9058128034
 C         -1.3221036830        1.0760698175        0.7823476663
 H         -0.9931602783        0.2691896245        0.1493385113
 N         -2.4722327427       -0.5204659910        2.1605859752
 S         -1.6685892089       -1.8266451530        1.5010204879
 O         -2.2009897258       -2.9624048243        2.2284716250
 O         -0.2341028827       -1.6699903660        1.5726847595
 C         -2.2411808420       -1.9091866629       -0.1823223963
 C         -1.4544106409       -2.5483035314       -1.1175644450
 C         -1.9090514598       -2.6472882571       -2.4222550265
 C         -3.1379338708       -2.1097451312       -2.7675909259
 C         -3.9211176417       -1.4780792470       -1.8143190439
 C         -3.4733789590       -1.3781832455       -0.5072866315
 H         -4.0572443049       -0.8868915981        0.2536425319
 H         -4.8760947154       -1.0572865958       -2.0858667750
 H         -3.4858578405       -2.1811739265       -3.7862586126
 H         -1.2969750934       -3.1351664093       -3.1638114549
 H         -0.4972512142       -2.9411615486       -0.8166750663
 H         -2.8918279563       -0.7079468810        3.0576037042
 H         -3.0863013846        1.6236614072        3.6144914325
 H         -2.4459284225        3.9425674643        3.0733832575
 H         -1.0680032160        4.4219920332        1.0863522832
 H          0.2848949487        3.6780144597       -0.6510570398
 C         -0.8366243685        2.5287591983       -2.0465663779
 C         -2.1621814681        1.8513049615       -2.1974553040
 C         -2.0763686678        3.3444843601       -2.2692249375
 H         -2.2126362296        3.8301451615       -3.2235246168
 H         -2.4548724643        3.9062497952       -1.4283317873
 H         -2.3323931461        1.2910698359       -3.1038248048
 H         -2.6127758714        1.4046267405       -1.3256281342
 H         -0.1564648006        2.4393872966       -2.8875881869
