  62
        -98.94400515
 C          1.8393574105        1.1136023440        0.1986647364
 C          2.2188361849        0.0948780449       -0.7081654151
 C          3.6584660343       -0.0057273214       -0.9819288341
 C          4.5121966192        0.8643636180       -0.4123333791
 C          6.0029162827        0.9034697131       -0.6136308408
 C          6.7797181215       -0.0645487551        0.2893086862
 C          6.6517912619       -1.5430756474       -0.0796472007
 H          6.8867528697       -1.6747452346       -1.1362787283
 H          7.4094708163       -2.0824889448        0.4922093582
 C          5.2769022022       -2.1551382787        0.2235093979
 H          4.7355439712       -1.5101103841        0.9193864793
 H          5.4084959429       -3.1198325717        0.7186971557
 C          4.4031207019       -2.3948615205       -1.0079833227
 H          3.4402470006       -2.7910518614       -0.6743453654
 H          4.8714559605       -3.1445295306       -1.6498161419
 C          4.1311654193       -1.1371106010       -1.8437122909
 H          5.0259688403       -0.8505460364       -2.3960057636
 H          3.3357942334       -1.3655843655       -2.5576256169
 H          7.8349773448        0.2118943200        0.2314857730
 H          6.4536181940        0.0827508084        1.3214577638
 H          6.2373611364        0.6967296710       -1.6581345032
 H          6.3211087613        1.9217868194       -0.3802415332
 O          4.1007966196        1.8519909752        0.4268983351
 C          2.7652351123        1.9848329455        0.7720133664
 O          2.5324012921        2.9027581122        1.5844793186
 H         -2.0248468673        0.0823944617       -0.0393299840
 C         -1.4396454009       -0.4764861447        0.6711763332
 C         -0.1969467136       -0.0117730509        1.0736815108
 C          0.5290401860       -0.7618724526        1.9953968039
 C          0.0397021093       -1.9623113088        2.4709476594
 C         -1.1879317751       -2.4373499178        2.0446116301
 C         -1.9318846866       -1.6866507258        1.1422422833
 N         -3.2016556579       -2.1204065684        0.7467118310
 S         -3.9338333934       -1.6496855266       -0.6744835095
 O         -5.0462616320       -2.5668761267       -0.8128768388
 O         -3.0172430174       -1.6027486003       -1.7887235768
 C         -4.5736648976       -0.0230942322       -0.3307895809
 C         -5.0369644568        0.2710403518        0.9362596781
 C         -5.5737851290        1.5255612219        1.1778654208
 C         -5.6472117124        2.4573990132        0.1539137766
 C         -5.1839460942        2.1448250850       -1.1145496430
 C         -4.6409945423        0.8933830684       -1.3613588700
 H         -4.2571542123        0.6126488316       -2.3297018730
 H         -5.2423348276        2.8699125442       -1.9108612038
 H         -6.0665433834        3.4326597217        0.3441716119
 H         -5.9339026860        1.7724001318        2.1636323330
 H         -4.9650822442       -0.4744025965        1.7103032456
 H         -3.4572662671       -3.0541206335        1.0293076012
 H         -1.5669542766       -3.3808559856        2.4064018084
 H          0.6208593097       -2.5384817338        3.1753850120
 H          1.4926210285       -0.3952824413        2.3233102469
 C          0.3786809832        1.2894059568        0.5709541584
 H          0.3610737344        2.0150942011        1.3977846591
 C         -0.3868108312        1.8716364599       -0.5997492249
 C         -1.5612822944        2.7713018132       -0.3615475881
 C         -0.2738175952        3.3397979271       -0.8759450560
 H         -0.2261375630        3.6690016707       -1.9030790109
 H          0.3378619678        3.9217845318       -0.2018286605
 H         -1.8332308606        2.9774628197        0.6624930698
 H         -2.4018085314        2.7099543391       -1.0360778965
 H         -0.4179919980        1.2007295286       -1.4518127472
 O          1.4036548116       -0.6902551166       -1.2592650925
