  62
        -98.94043675
 C         -2.5387253374       -1.2680561154        0.1170445261
 C         -3.4035284127       -0.6210212159        1.0390604167
 C         -4.3634562288        0.3375902697        0.4785161276
 C         -4.3898163389        0.5349667739       -0.8517048527
 C         -5.2778648793        1.5175292423       -1.5573027058
 C         -4.5893460372        2.8816446616       -1.7052587337
 C         -3.9738301720        3.4071694069       -0.4082214732
 H         -3.1489430348        2.7537846089       -0.1141355740
 H         -3.5445866547        4.3874440400       -0.6264280477
 C         -4.9627150054        3.5303559390        0.7595071270
 H         -4.8050367331        4.4925019500        1.2512699778
 H         -5.9854839094        3.5240216278        0.3809885299
 C         -4.8132453335        2.4514836618        1.8339092691
 H         -5.4004147130        2.7553064527        2.7045105025
 H         -3.7684859670        2.3900920627        2.1489851052
 C         -5.2795228190        1.0451889209        1.4367135918
 H         -5.2959739840        0.4320397804        2.3424203567
 H         -6.2938369967        1.0930703325        1.0353286478
 H         -3.7941546980        2.7891833209       -2.4488217859
 H         -5.3220259490        3.5989276055       -2.0795424645
 H         -5.5050008945        1.1252206023       -2.5500398535
 H         -6.2056582737        1.6256503940       -0.9989062890
 O         -3.5632538399       -0.1150686568       -1.7078050048
 C         -2.6074650542       -1.0172709211       -1.2537417838
 O         -1.9117170538       -1.5004565250       -2.1676314110
 H         -0.0640437408       -0.7557348328       -0.9947654307
 C          0.4198855732       -0.8682329502       -0.0351949368
 C         -0.2055087232       -1.6087088594        0.9585314285
 C          0.4393466374       -1.7577150688        2.1806071329
 C          1.6788513529       -1.1809687648        2.3974357135
 C          2.2978438948       -0.4437677028        1.4040274727
 C          1.6616215242       -0.2878503748        0.1792897549
 N          2.2783266092        0.4676843962       -0.8356153044
 S          3.8364054502        0.0192873865       -1.2837201388
 O          3.9938235718        0.4869137607       -2.6432222573
 O          4.0631066336       -1.3893754260       -1.0563542685
 C          4.8811260042        0.9864073596       -0.2141938210
 C          4.7392713855        2.3601316168       -0.2358254743
 C          5.5477047787        3.1291531516        0.5858326913
 C          6.4812524600        2.5152873101        1.4078488257
 C          6.6147583067        1.1352824124        1.4142886590
 C          5.8079853605        0.3599225394        0.5957602954
 H          5.8717506722       -0.7162289873        0.5710543686
 H          7.3417884335        0.6601860264        2.0531098334
 H          7.1087291326        3.1164222902        2.0467617363
 H          5.4470206507        4.2025685614        0.5829851021
 H          4.0049749463        2.7969272459       -0.8919634692
 H          1.6991140024        0.5695525955       -1.6574440344
 H          3.2623486872        0.0085419106        1.5670257308
 H          2.1680350963       -1.3047382869        3.3513610501
 H         -0.0419900123       -2.3225788009        2.9654523504
 C         -1.5437145861       -2.2542763414        0.7029819354
 H         -1.9690803900       -2.5265854369        1.6819339674
 C         -1.4272203043       -3.5372215788       -0.1101504172
 C         -0.2174794519       -3.9145986475       -0.9065026409
 C         -0.5363395100       -4.6491694391        0.3590899664
 H         -0.8962854093       -5.6646276098        0.2940802996
 H          0.0916918937       -4.4545634547        1.2153261604
 H         -0.3776876496       -4.4082180887       -1.8531464959
 H          0.6303240263       -3.2465065419       -0.9106525896
 H         -2.3828231779       -3.8292939522       -0.5346821277
 O         -3.3751040965       -0.8442981751        2.2785979946
