  62
        -98.94184575
 C          2.2556740513        0.7251947213        0.1260290602
 C          3.4388403957        1.0136809250        0.8570414808
 C          4.3853293294       -0.0932270545        1.0271066308
 C          4.0713495436       -1.3141227467        0.5589566919
 C          4.9189376998       -2.5519217255        0.6733167212
 C          5.9905777231       -2.6754115351       -0.4187832046
 C          7.1727566739       -1.7147646602       -0.2826137227
 H          7.5855665295       -1.7895640917        0.7238420523
 H          7.9433039742       -2.0554943437       -0.9770111250
 C          6.8387156950       -0.2496913622       -0.5968160626
 H          5.8964312978       -0.2018340784       -1.1478840631
 H          7.6102438549        0.1683523028       -1.2473052784
 C          6.7416213982        0.6557947273        0.6312158634
 H          7.7175451643        0.7194034463        1.1172747373
 H          6.4666039808        1.6594354177        0.2965531952
 C          5.7070067652        0.2018635765        1.6694390103
 H          6.0720322399       -0.6724421280        2.2077660777
 H          5.5555514852        1.0157065800        2.3826311560
 H          6.3744990216       -3.6975990563       -0.3837620489
 H          5.5149222054       -2.5331698219       -1.3921036732
 H          4.2393541042       -3.4027084387        0.5878036810
 H          5.3923543675       -2.5827392579        1.6550885786
 O          2.8981799257       -1.5696607681       -0.0758841340
 C          1.9724278843       -0.5627602345       -0.3329677057
 O          0.9742155493       -0.9607864377       -0.9628961169
 O          3.6913405415        2.1464053526        1.3457414407
 C          1.2815199455        1.8722851240       -0.0837984705
 C         -0.1055893142        1.4583583022        0.3323038451
 C         -0.4418264871        1.4521085340        1.6826921264
 C         -1.6928583236        1.0341044447        2.0953349985
 C         -2.6296998124        0.6028283522        1.1722112372
 C         -2.2953173367        0.5840553799       -0.1747443494
 C         -1.0473999017        1.0310775174       -0.5893036860
 H         -0.7929944132        1.0023535066       -1.6373368021
 N         -3.2317028976        0.1387288852       -1.1216041116
 S         -4.1591310023       -1.2172692138       -0.7846656390
 O         -3.4869530375       -2.1397208200        0.1002037979
 O         -4.5498806000       -1.7337230626       -2.0788354597
 C         -5.5994180420       -0.5407487114        0.0189874950
 C         -6.2787713383        0.4826256019       -0.6126859972
 C         -7.4056534143        1.0132140138       -0.0055831197
 C         -7.8345101278        0.5127824084        1.2147632755
 C         -7.1445518010       -0.5176650296        1.8344178333
 C         -6.0159571663       -1.0522051343        1.2323521286
 H         -5.4451219926       -1.8507232030        1.6795726560
 H         -7.4794060912       -0.9065833191        2.7826512583
 H         -8.7116362346        0.9278130902        1.6856069279
 H         -7.9448990182        1.8143865500       -0.4847658029
 H         -5.9148791342        0.8411032371       -1.5609314323
 H         -2.8611925171        0.0930237615       -2.0599818850
 H         -3.6012304414        0.2602180021        1.4884615220
 H         -1.9421507392        1.0390144302        3.1456186779
 H          0.2954119417        1.7704113558        2.4068681525
 H          1.6288380034        2.6498952194        0.6155603120
 C          1.3233369602        2.4927217298       -1.4728340267
 C          2.6312852837        2.6773410665       -2.1810297587
 C          1.6191306852        1.7115973112       -2.7165162036
 H          1.0894608665        1.9755112577       -3.6207380968
 H          1.8102545068        0.6542390278       -2.6199002930
 H          2.8038930512        3.5969231894       -2.7193445191
 H          3.5137234518        2.2771628110       -1.7030469025
 H          0.6031066411        3.2995462090       -1.5704987580
