  62
        -98.94502066
 C         -2.2133027443       -0.8049575667       -0.0941285241
 C         -3.0899929643       -0.5613823062        0.9960179495
 C         -3.9102851459        0.6530457161        0.9171336890
 C         -3.7674493340        1.4721889795       -0.1403363687
 C         -4.5692143907        2.7185879355       -0.3759700804
 C         -5.8303193744        2.4210124237       -1.1994486474
 C         -6.6457694999        1.2390101834       -0.6751134381
 H         -7.5257859924        1.1424436392       -1.3145975113
 H         -6.0612759469        0.3236110128       -0.7921882630
 C         -7.0888853192        1.3729297837        0.7884799266
 H         -7.0183072085        2.4147603226        1.1030153239
 H         -8.1385461706        1.0816396120        0.8643918855
 C         -6.3106994060        0.4939070519        1.7693129347
 H         -6.8407829283        0.4998004490        2.7253377813
 H         -6.2996365425       -0.5372152875        1.4074719640
 C         -4.8642225162        0.9225301667        2.0468146434
 H         -4.8397554620        1.9777078847        2.3267042520
 H         -4.4990299441        0.3339830273        2.8934206002
 H         -5.5287257439        2.2007695805       -2.2261338248
 H         -6.4523204497        3.3178494206       -1.2132155673
 H         -4.8426866897        3.1541920361        0.5831625558
 H         -3.9467372107        3.4290832797       -0.9227538096
 O         -2.8970874940        1.2250788877       -1.1504280390
 C         -2.1050764674        0.0855707780       -1.1621412374
 O         -1.3756198458        0.0015720672       -2.1708963531
 H          0.6124661584       -1.0247914699       -1.5883057559
 C          0.9330389522       -1.1624949805       -0.5670599122
 C          0.0483783989       -1.6903514439        0.3622594016
 C          0.4670387078       -1.8136149483        1.6829762621
 C          1.7399437372       -1.4236043450        2.0586586286
 C          2.6181171653       -0.8956850245        1.1287660857
 C          2.2029446962       -0.7519306740       -0.1881885622
 N          3.0804235764       -0.1940116292       -1.1376181319
 S          3.7582900290        1.2982163089       -0.7624993237
 O          2.9212173084        2.0512472109        0.1437377313
 O          4.0524641942        1.9180582880       -2.0363143843
 C          5.2927583642        0.8693672458        0.0349714949
 C          5.5577371445        1.3205196844        1.3131089529
 C          6.7601525313        0.9743897628        1.9102302166
 C          7.6716283384        0.1885865169        1.2218205969
 C          7.3920371530       -0.2532833603       -0.0628896614
 C          6.1922917983        0.0894992722       -0.6654657429
 H          5.9374477479       -0.2285212985       -1.6625542935
 H          8.1036577671       -0.8632959161       -0.5955129409
 H          8.6056755633       -0.0804604236        1.6892107403
 H          6.9792748391        1.3179471383        2.9084643352
 H          4.8165731061        1.9254182145        1.8111177635
 H          2.6841533894       -0.1672984416       -2.0670924626
 H          3.6087220564       -0.5825925735        1.4154597969
 H          2.0514727495       -1.5286309170        3.0867177709
 H         -0.2241791554       -2.2014879212        2.4174745226
 C         -1.3619542391       -2.0638286569       -0.0258134353
 H         -1.7898553693       -2.6521548566        0.7968055149
 C         -1.4224190071       -2.8933806984       -1.2920710039
 C         -0.9786880816       -4.3238449311       -1.2434747533
 C         -2.4325212160       -3.9948942400       -1.3968625469
 H         -2.9052759795       -4.1698005882       -2.3517281329
 H         -3.0848635239       -4.1573774388       -0.5512892459
 H         -0.4500460909       -4.7282865478       -2.0928307238
 H         -0.6443864497       -4.7086973166       -0.2920411114
 H         -1.2142946294       -2.3299485899       -2.1923336132
 O         -3.1846972248       -1.3318569392        1.9879996974
