  62
        -98.94440793
 C          1.9564265220       -1.3460836158       -0.0657267738
 C          2.2412536052       -0.3840616748        0.9333674002
 C          3.6172292868        0.1363196397        0.9534209989
 C          4.5137795057       -0.3132531954        0.0577149174
 C          5.9281510372        0.1725943744       -0.0646194814
 C          6.0316823174        1.3405309525       -1.0553420847
 C          5.0049853648        2.4475413041       -0.8153494663
 H          5.1941428855        3.2316891488       -1.5517135324
 H          4.0043601602        2.0563944081       -1.0145474956
 C          5.0409266799        3.0522224737        0.5951756139
 H          5.9912417024        2.8164313399        1.0755774036
 H          4.9814551062        4.1394678337        0.5110945320
 C          3.8911837849        2.6126409825        1.5036598629
 H          3.8888858920        3.2597459796        2.3850287418
 H          2.9396828831        2.7620200427        0.9864104109
 C          3.9499393101        1.1624225447        2.0003144535
 H          4.9302828383        0.9632125761        2.4375169544
 H          3.1952076570        1.0491401065        2.7839505409
 H          5.8849754092        0.9519077652       -2.0657375529
 H          7.0389546574        1.7565967109       -0.9944379487
 H          6.2877309346        0.4808069500        0.9151871163
 H          6.5446642830       -0.6527703894       -0.4247027464
 O          4.2103266795       -1.2440635827       -0.8810268659
 C          2.9357400242       -1.7729793751       -0.9704590735
 O          2.7972243294       -2.6136558004       -1.8810129785
 H         -0.3792927611        0.3814568349        0.6071338066
 C         -0.7899279398        0.1009262495       -0.3514460202
 C         -0.3783524910       -1.0837585210       -0.9455085494
 C         -0.9065806800       -1.4233489906       -2.1852459963
 C         -1.8225779273       -0.5967375564       -2.8132339078
 C         -2.2311580441        0.5827585263       -2.2172410236
 C         -1.7029594894        0.9327845026       -0.9814598921
 N         -2.1286145563        2.1241378557       -0.3562711681
 S         -3.7780563083        2.2164887313       -0.0658015287
 O         -4.4552945577        2.5787326282       -1.2857086695
 O         -3.9316774348        3.1342292454        1.0405947242
 C         -4.2315673055        0.5593829737        0.4139993034
 C         -4.9248339142       -0.2463756754       -0.4656791043
 C         -5.1952285395       -1.5558617651       -0.1022271527
 C         -4.7652921704       -2.0352299273        1.1250502567
 C         -4.0718382448       -1.2119065468        1.9987892577
 C         -3.7971387909        0.0973279739        1.6404175569
 H         -3.2625082519        0.7656361670        2.2965580931
 H         -3.7400789293       -1.5844676648        2.9548095019
 H         -4.9723999675       -3.0565464455        1.4035146849
 H         -5.7347928095       -2.1987433098       -0.7786453907
 H         -5.2400011458        0.1662570761       -1.4098449176
 H         -1.6173956380        2.3200022616        0.4932512922
 H         -2.9493022079        1.2366601823       -2.6853312857
 H         -2.2234709872       -0.8742909181       -3.7760810338
 H         -0.5860022852       -2.3387275080       -2.6610478929
 C          0.5928420012       -1.9988440203       -0.2388971650
 H          0.7654534663       -2.8671432749       -0.8881518090
 C         -0.0012612794       -2.4893482724        1.0687237278
 C         -1.0773868874       -3.5302126597        1.0283931939
 C          0.2899541433       -3.8838998647        1.5301959406
 H          0.4260537224       -4.0583723867        2.5869730587
 H          0.9226830468       -4.4959543655        0.9036701581
 H         -1.8852722082       -3.4614095689        1.7397025266
 H         -1.3742314113       -3.9039064145        0.0603869309
 H         -0.0705735612       -1.7200353642        1.8257883139
 O          1.4083692104        0.0383080640        1.7810904924
