  62
        -98.93749548
 C         -2.2498029460       -0.9291464441        0.4289414796
 C         -2.4866132485       -0.0355088717       -0.6421381136
 C         -3.3373436098        1.1297330742       -0.3403731596
 C         -3.8033724735        1.3030382728        0.9081861725
 C         -4.6458499350        2.4320231633        1.4478482852
 C         -5.8126516413        2.9230461999        0.5798145923
 C         -6.4902628194        1.8394080541       -0.2715255449
 H         -6.1515966251        0.8504595330        0.0421344109
 H         -7.5684248378        1.8816710064       -0.1061972310
 C         -6.2379773860        2.0137653202       -1.7711309258
 H         -6.3384805621        3.0719779077       -2.0220014705
 H         -7.0109435011        1.4726510300       -2.3221008705
 C         -4.8862358224        1.5068368546       -2.2724684317
 H         -4.8635293659        0.4143819628       -2.2356426898
 H         -4.7875386490        1.7938454686       -3.3220194148
 C         -3.6588988651        2.0230664333       -1.5037335990
 H         -2.7952990064        1.9674111814       -2.1720687933
 H         -3.7932299339        3.0566660076       -1.1943227482
 H         -5.4688919614        3.7237584227       -0.0734646485
 H         -6.5449360985        3.3641826652        1.2581572871
 H         -5.0293207550        2.0672239350        2.4038596717
 H         -3.9842689685        3.2751104602        1.6680839464
 O         -3.5170684291        0.4333481227        1.9201659640
 C         -2.7459708198       -0.6967932009        1.7093282304
 O         -2.5690210181       -1.3977323519        2.7279894579
 H          0.1138012643       -0.2317625569        1.2209948150
 C          0.6315015681       -0.7463021301        0.4194553178
 C         -0.0127250373       -1.7852005853       -0.2412875248
 C          0.6707034524       -2.4480475022       -1.2521251411
 C          1.9539658152       -2.0625958230       -1.6003357022
 C          2.5827357541       -1.0156705472       -0.9525595879
 C          1.9138190227       -0.3538247391        0.0690141883
 N          2.5417786760        0.7183984194        0.7296448808
 S          4.0651738372        0.4468689900        1.3847391563
 O          4.2382091501       -0.9367793721        1.7632190947
 O          4.2022354903        1.4243855877        2.4426380088
 C          5.1814949290        0.8631092252        0.0619772106
 C          6.1252136428       -0.0540853739       -0.3571511060
 C          6.9911010001        0.2967201663       -1.3813888196
 C          6.8988262898        1.5515035125       -1.9638636687
 C          5.9465960036        2.4618452212       -1.5295966269
 C          5.0787069793        2.1181060971       -0.5055143879
 H          4.3267913863        2.7960331307       -0.1371821499
 H          5.8773273850        3.4364594094       -1.9853184788
 H          7.5728505385        1.8220198201       -2.7612418735
 H          7.7320474944       -0.4092368886       -1.7204452381
 H          6.1550115262       -1.0198124776        0.1216112494
 H          1.9479490450        1.1769001823        1.4057019127
 H          3.5786374364       -0.7080082295       -1.2263529725
 H          2.4703382861       -2.5832752738       -2.3921807216
 H          0.1975052089       -3.2657528572       -1.7702810877
 C         -1.4032455687       -2.1683754525        0.2069623281
 H         -1.3155205911       -2.6560240607        1.1898306489
 C         -2.1056415112       -3.1142907192       -0.7454241390
 C         -1.9184631330       -4.5953306994       -0.6183752215
 C         -3.2198063023       -3.9676389327       -0.2210740810
 H         -4.0851730087       -4.1292101956       -0.8461883253
 H         -3.4512959387       -3.8874632784        0.8315807427
 H         -1.2691021732       -4.9523457339        0.1668426674
 H         -1.8937561056       -5.1916883002       -1.5179274832
 H         -2.2219460732       -2.6932085432       -1.7373078452
 O         -2.0056958717       -0.1934436371       -1.7931904790
