  62
        -98.93805184
 C         -2.4810919362       -1.1878068106       -0.0773089736
 C         -3.2056454837       -0.4743903477        0.9036456854
 C         -4.0222392597        0.6548879778        0.4251998092
 C         -4.0311407227        0.9418446726       -0.8884783354
 C         -4.7465406223        2.0737892800       -1.5728444676
 C         -3.8182023585        3.2908809914       -1.7238330102
 C         -3.8026656175        4.2418433082       -0.5274924195
 H         -3.0140957287        4.9765617562       -0.7058699697
 H         -4.7505176951        4.7823634223       -0.4861698785
 C         -3.5591769086        3.5806261608        0.8318448224
 H         -2.7640949586        2.8375417057        0.7426904979
 H         -3.2041968893        4.3501421169        1.5204745982
 C         -4.8195648293        2.9296731544        1.4212454367
 H         -5.6894426489        3.2629097841        0.8557049912
 H         -4.9625989165        3.2816972121        2.4450223313
 C         -4.7993094132        1.3947224865        1.4800249821
 H         -4.3543719833        1.0733091971        2.4273095360
 H         -5.8298354946        1.0242534440        1.4790405992
 H         -2.8076571940        2.9192972076       -1.9128582540
 H         -4.1263642472        3.8598637185       -2.6031775308
 H         -5.0133656381        1.7150282753       -2.5689917388
 H         -5.6553032794        2.3350699827       -1.0390585362
 O         -3.3081035227        0.2345718019       -1.7995611173
 C         -2.5107060849       -0.8337487201       -1.4261812390
 O         -1.8949372861       -1.3704257294       -2.3650518846
 H         -0.2822975116       -0.1146253285        0.8603612717
 C          0.3606711691       -0.8387299611        0.3737784010
 C         -0.1645141684       -2.0765803192        0.0219416060
 C          0.6763890512       -3.0016248459       -0.5818200424
 C          1.9976556277       -2.6811169266       -0.8438325031
 C          2.5091172558       -1.4411565421       -0.5098495999
 C          1.6815240933       -0.5128908354        0.1090328259
 N          2.1891689457        0.7543485096        0.4473113310
 S          3.6101435359        0.8230617546        1.3413508380
 O          3.7682031985       -0.3480775857        2.1721551633
 O          3.5629841551        2.0963247278        2.0266202905
 C          4.8920369277        0.8753752766        0.1073889282
 C          4.8503915365        1.8873318196       -0.8315697342
 C          5.8451233482        1.9476311025       -1.7943445102
 C          6.8602143816        1.0023864096       -1.7999685830
 C          6.8895632872       -0.0054169125       -0.8482770504
 C          5.8968489726       -0.0720858169        0.1170531514
 H          5.8754858234       -0.8401118588        0.8737012185
 H          7.6796113181       -0.7389831327       -0.8543233333
 H          7.6329959160        1.0519729020       -2.5507228138
 H          5.8253787102        2.7297563168       -2.5361403144
 H          4.0468830999        2.6037438810       -0.7900352730
 H          1.4967857242        1.3748690289        0.8413023873
 H          3.5349458291       -1.1862955569       -0.7197727857
 H          2.6374430783       -3.4079626295       -1.3204549485
 H          0.2968454611       -3.9730433679       -0.8522951008
 C         -1.6114786135       -2.3556495003        0.3496424886
 H         -1.7050828973       -2.4051326272        1.4453279834
 C         -2.1321244301       -3.6487585684       -0.2412167597
 C         -1.9218924591       -4.9468736185        0.4776044102
 C         -3.2874575467       -4.3326304554        0.4241927871
 H         -4.0400124721       -4.7953568856       -0.1963639072
 H         -3.6815533446       -3.8788832524        1.3220584698
 H         -1.7389266813       -5.8361600905       -0.1064261320
 H         -1.3901131767       -4.9180320411        1.4167397755
 H         -2.1065500345       -3.6503560215       -1.3250021325
 O         -3.1624818043       -0.7594156529        2.1327354636
