  62
        -98.93751803
 C          1.9534375934        0.9146276921        0.0804914072
 C          2.2185367723       -0.0484805923        1.0786934032
 C          2.5552263749       -1.4032688937        0.6114815222
 C          2.5570863227       -1.6554288054       -0.7090614973
 C          2.9156822317       -2.9458951587       -1.3929922466
 C          4.4031394973       -2.9589673862       -1.7853267468
 C          5.3520406447       -3.4660708468       -0.7000385981
 H          5.2180051467       -4.5432270341       -0.5816486672
 H          6.3711087147       -3.2989727915       -1.0559869532
 C          5.1953586062       -2.8010233710        0.6698928756
 H          5.0687809832       -1.7241819247        0.5443640474
 H          6.1222504689       -2.9556024525        1.2254794496
 C          4.0265153404       -3.3707644048        1.4876149508
 H          3.6787158425       -4.2914538714        1.0195841806
 H          4.3806154014       -3.6438601860        2.4838040989
 C          2.8399382518       -2.4156244412        1.6874571563
 H          1.9297122913       -3.0012564872        1.8593301073
 H          2.9996990894       -1.8196930457        2.5919434625
 H          4.6808260480       -1.9416268945       -2.0724149882
 H          4.5269534730       -3.5927056921       -2.6656750981
 H          2.6641374528       -3.7957625801       -0.7654685132
 H          2.3130272680       -2.9911039516       -2.3025120137
 O          2.2732075869       -0.7026335154       -1.6392415677
 C          1.9574095156        0.5945429587       -1.2764536176
 O          1.7120474578        1.3529503091       -2.2342735413
 H         -0.5356179006        0.7000444294        0.3011505080
 C         -0.7780732472        1.7025806097       -0.0218343584
 C          0.2033611902        2.6853179907       -0.0053151755
 C         -0.1374789508        3.9686217297       -0.4146082497
 C         -1.4252714911        4.2497420324       -0.8373128980
 C         -2.3959002938        3.2662752095       -0.8597894928
 C         -2.0639727042        1.9765563718       -0.4563033126
 N         -3.0151027277        0.9458422838       -0.5188447789
 S         -2.8333327398       -0.4466408663        0.4059942257
 O         -2.6324091074       -0.1072307139        1.7980333245
 O         -1.8324630739       -1.2889042619       -0.2017867397
 C         -4.4480213532       -1.1695394643        0.1834939760
 C         -5.4170357423       -0.9766581891        1.1500090313
 C         -6.6783433124       -1.5164966524        0.9523892019
 C         -6.9489277425       -2.2331958034       -0.2035392442
 C         -5.9659906218       -2.4194428988       -1.1644041788
 C         -4.7025236945       -1.8833515903       -0.9723170678
 H         -3.9040702744       -2.0084215521       -1.6853307561
 H         -6.1785270513       -2.9797046619       -2.0605806433
 H         -7.9310873399       -2.6519902509       -0.3555026023
 H         -7.4431139762       -1.3763606266        1.6991207966
 H         -5.1571224140       -0.4199566206        2.0359515435
 H         -3.9698302772        1.2751776969       -0.5402484086
 H         -3.3974580929        3.4857417957       -1.1960277022
 H         -1.6763154724        5.2509537689       -1.1531041524
 H          0.6066480918        4.7481624799       -0.4043141529
 C          1.5828614489        2.3254315042        0.4924745369
 H          1.5509538207        2.3103442161        1.5934311165
 C          2.6522882311        3.3036618798        0.0486430115
 C          2.9728030621        4.5115283320        0.8761684899
 C          3.9363227915        3.3658095913        0.8187965513
 H          4.8598451028        3.4904494963        0.2737858315
 H          4.0228422820        2.7248106454        1.6842956530
 H          2.4145198791        4.6551419939        1.7889966281
 H          3.2386711319        5.4271079383        0.3696224884
 H          2.7105933448        3.3883578823       -1.0308083763
 O          2.1845268545        0.2147351341        2.3138203368
