  62
        -98.93593591
 C         -2.3894800100       -1.0714093574       -0.0031687772
 C         -2.2651942656        0.2629915187       -0.4619383618
 C         -3.1783255875        1.2406102335        0.1536131821
 C         -4.0217765646        0.8455873208        1.1233219652
 C         -5.0311119587        1.7269145919        1.7987192491
 C         -6.3820378223        1.6814835516        1.0709937460
 C         -6.2767409949        1.8894392968       -0.4398582330
 H         -5.7409740666        1.0448054387       -0.8793184028
 H         -7.2918744812        1.8695595282       -0.8422620962
 C         -5.5877564631        3.1970823236       -0.8543184852
 H         -6.1694171894        3.6606245888       -1.6539226864
 H         -5.5790279934        3.8932657292       -0.0149472755
 C         -4.1629874442        3.0237682432       -1.3837881133
 H         -3.8556075651        3.9659870346       -1.8452683715
 H         -4.1532790450        2.2592103893       -2.1648533685
 C         -3.1011536402        2.6589925595       -0.3385769386
 H         -2.1208161237        2.7584784352       -0.8136631765
 H         -3.1511079817        3.3599981096        0.4969070358
 H         -7.0316774133        2.4459324450        1.5009812785
 H         -6.8395781467        0.7059266543        1.2510782639
 H         -4.6553364551        2.7478105264        1.8260113878
 H         -5.1671508758        1.3714033418        2.8214206119
 O         -4.0817707887       -0.4344771923        1.5706689103
 C         -3.2869083899       -1.4187791411        1.0120800461
 O         -3.4676250176       -2.5547269929        1.4938996206
 O         -1.4409871403        0.6434817311       -1.3345542598
 C         -1.5679292925       -2.2246071895       -0.5588114705
 C         -0.2256871829       -2.3145856092        0.1201444181
 C          0.2025748542       -3.4966202708        0.7112020352
 C          1.4460275091       -3.5707433967        1.3155969635
 C          2.2855572561       -2.4716006009        1.3429846277
 C          1.8648172585       -1.2849338265        0.7563640579
 C          0.6183604400       -1.2127932614        0.1525412093
 H          0.2969642387       -0.2918309557       -0.3123408263
 N          2.7090388576       -0.1494769995        0.7787934634
 S          4.1833625238       -0.3544317609       -0.0282633480
 O          3.9467051531       -0.7379459437       -1.4036498908
 O          5.0032404693       -1.2533204185        0.7431424312
 C          4.8487263216        1.2956444369        0.0516324109
 C          4.6105182233        2.1699609228       -0.9913750060
 C          5.1066565652        3.4615689946       -0.9093615807
 C          5.8251202379        3.8549481331        0.2096648332
 C          6.0553329221        2.9655759820        1.2487569415
 C          5.5626365281        1.6726276685        1.1727503849
 H          5.7231272180        0.9449654786        1.9508911657
 H          6.6162917316        3.2750631027        2.1157851499
 H          6.2100047358        4.8606886198        0.2704108385
 H          4.9304208136        4.1542601517       -1.7166172284
 H          4.0547661324        1.8196274338       -1.8468395901
 H          2.2345032249        0.6472667028        0.3706496726
 H          3.2625166062       -2.5222863219        1.7949325180
 H          1.7663768700       -4.4959213989        1.7705384385
 H         -0.4492219058       -4.3583323010        0.7016161082
 H         -2.1337941088       -3.1307962644       -0.2916666182
 C         -1.4631226433       -2.1909290782       -2.0793223393
 C         -0.1857337055       -1.9817463992       -2.8312542345
 C         -0.8244790298       -3.3358653756       -2.8085390637
 H         -1.2932095636       -3.7071151268       -3.7072471507
 H         -0.3484268057       -4.0985738257       -2.2103290716
 H         -0.2331431404       -1.4000144361       -3.7395313105
 H          0.7305658610       -1.8397569154       -2.2785855877
 H         -2.3536313936       -1.7679126467       -2.5336818170
