  62
        -98.94797391
 C         -2.3457771970       -0.2513815792        0.1447634130
 C         -1.7661578105        0.3671185913       -0.9892189597
 C         -1.6895502869        1.8322863503       -0.9496733556
 C         -2.0498388713        2.4881357145        0.1679232574
 C         -2.0171443885        3.9785450452        0.3710330983
 C         -0.6309131639        4.5212340989        0.7453238163
 C          0.3713774280        4.5969475338       -0.4071951412
 H         -0.0895831121        5.1032038600       -1.2565856385
 H          1.2018411402        5.2185732194       -0.0663083767
 C          0.9289370066        3.2377654692       -0.8525485345
 H          0.7666579473        2.4992187431       -0.0637840543
 H          2.0110348004        3.3167029160       -0.9883064989
 C          0.3469750980        2.7117627280       -2.1638720247
 H          0.6211626129        3.3844848907       -2.9801033486
 H          0.7950791002        1.7369164583       -2.3649316138
 C         -1.1779324772        2.5479515526       -2.1652439948
 H         -1.6572502781        3.5237825240       -2.2476567082
 H         -1.4532439163        1.9489404085       -3.0372243496
 H         -0.2157430661        3.8992367801        1.5427142641
 H         -0.7715360351        5.5286111636        1.1449895035
 H         -2.3763668500        4.4815421086       -0.5276672566
 H         -2.7062423869        4.1953668002        1.1903139056
 O         -2.5187133033        1.8494011894        1.2729277289
 C         -2.6723447954        0.4750715844        1.2893612271
 O         -3.1116241300        0.0187895574        2.3679122446
 H         -0.6188924273       -1.2144661911        1.9667795644
 C         -0.2411964028       -1.8934517219        1.2121011315
 C         -1.0996024172       -2.3464814213        0.2166231642
 C         -0.6004114906       -3.2208946369       -0.7388268943
 C          0.7333582886       -3.5958797936       -0.7186263970
 C          1.5989190124       -3.0845115550        0.2318633637
 C          1.1000271662       -2.2282710032        1.2043727409
 N          2.0118455978       -1.6063634181        2.1125454397
 S          2.2944402389       -0.0130941458        1.6151594183
 O          3.2663018136        0.5241270843        2.5437953567
 O          1.0616079561        0.7393689486        1.5105626285
 C          3.0277522869       -0.2538359886        0.0158855884
 C          2.2096016370       -0.3617203438       -1.0912447405
 C          2.7880637741       -0.6100053352       -2.3261476567
 C          4.1635267240       -0.7475042363       -2.4314610823
 C          4.9708075715       -0.6359959324       -1.3090969141
 C          4.3994158139       -0.3905466595       -0.0709963375
 H          4.9831450456       -0.2955197716        0.8298226409
 H          6.0401922474       -0.7429257185       -1.3944377193
 H          4.6070752949       -0.9432139813       -3.3949440539
 H          2.1530568778       -0.6999153425       -3.1932028071
 H          1.1413733335       -0.2546120127       -0.9795563870
 H          1.6547015840       -1.5730648468        3.0590684339
 H          2.6486751691       -3.3283461023        0.2292026305
 H          1.1087355821       -4.2702920830       -1.4723834907
 H         -1.2514176238       -3.5909498219       -1.5136048908
 C         -2.4920799691       -1.7657164077        0.2057309515
 H         -2.9666169141       -1.9858776078        1.1728390137
 C         -3.3725211659       -2.2842123030       -0.9091073642
 C         -4.0544555997       -3.6104993109       -0.7629016677
 C         -4.8542202567       -2.3450194621       -0.6972540133
 H         -5.5030077780       -2.0990498155       -1.5242574359
 H         -5.2334197571       -2.0263170489        0.2631331440
 H         -3.8943708812       -4.1558265413        0.1549673350
 H         -4.1588631562       -4.2363548125       -1.6359367359
 H         -3.0210096503       -1.9929950953       -1.8913224658
 O         -1.3446769439       -0.2651172802       -1.9925919776
