  62
        -98.94435638
 C         -1.2866111519       -1.6879586328       -0.8583522895
 C         -2.5020742558       -1.5426670667       -0.1397079426
 C         -3.3412102527       -0.3962096806       -0.4961541112
 C         -2.9552298048        0.4250317143       -1.4886852432
 C         -3.6773096227        1.6615480381       -1.9484795680
 C         -3.3400194244        2.9007684119       -1.1073064925
 C         -3.9744765168        2.9301302961        0.2839640908
 H         -3.8587135761        3.9464244532        0.6661642948
 H         -5.0439448022        2.7305329755        0.2023028283
 C         -3.3386987852        1.9554393528        1.2856288526
 H         -3.1743234528        2.4693594798        2.2363165517
 H         -2.3535629357        1.6520196531        0.9204920269
 C         -4.1777105500        0.7117564428        1.5840899709
 H         -3.6069638168        0.0711044539        2.2617086417
 H         -5.0985128037        1.0070705807        2.0929732704
 C         -4.5474645566       -0.1192872925        0.3485720862
 H         -4.9443996714       -1.0791758306        0.6885528718
 H         -5.3135494809        0.3913258482       -0.2344329687
 H         -2.2533666965        2.9693652948       -1.0062573337
 H         -3.6826133002        3.7784226975       -1.6610178369
 H         -4.7541652070        1.4905178608       -1.9381761755
 H         -3.3615904774        1.8458275108       -2.9776277434
 O         -1.8290450717        0.2078684358       -2.2105182805
 C         -0.9306734400       -0.8015200205       -1.8743871034
 O          0.0994045474       -0.7912082274       -2.5738862248
 O         -2.8593483039       -2.3373784176        0.7717459334
 C         -0.3449555640       -2.7613468483       -0.3354555698
 C          0.2852893753       -2.2352819393        0.9321036252
 C          0.3429752790       -2.9879337119        2.0972548880
 C          0.8537748001       -2.4338466991        3.2590843562
 C          1.3003123697       -1.1253185423        3.2835527035
 C          1.2532906518       -0.3650226149        2.1178052878
 C          0.7712897841       -0.9357714763        0.9512812802
 H          0.7162533046       -0.3421990230        0.0547339079
 N          1.6954587022        0.9579254630        2.1103064461
 S          1.5111754746        2.0366551492        0.8523741880
 O          1.8024657776        3.3176080386        1.4620176075
 O          0.2242579354        1.9228336039        0.2100939433
 C          2.8520709837        1.6043094890       -0.2370476102
 C          2.6352821638        0.9867987932       -1.4508840219
 C          3.7309604136        0.6479275287       -2.2318234305
 C          5.0136776487        0.9305944564       -1.7922396932
 C          5.2147109838        1.5580944227       -0.5711818437
 C          4.1263838934        1.8967935051        0.2138718360
 H          4.2353952984        2.3950770040        1.1629652163
 H          6.2131715603        1.7809528370       -0.2311287094
 H          5.8597476492        0.6618360340       -2.4048669565
 H          3.5630125373        0.1589819727       -3.1780736661
 H          1.6330699094        0.7612445064       -1.7823704061
 H          1.8940970650        1.3819951276        3.0014563742
 H          1.6707098363       -0.6872448921        4.1975021477
 H          0.8867500908       -3.0226700088        4.1632884582
 H         -0.0423775091       -3.9967811208        2.0989494641
 H         -0.9898320332       -3.6096656286       -0.0534746062
 C          0.6712390988       -3.2722832217       -1.3415196838
 C          2.1086115326       -2.8557121064       -1.3359664335
 C          1.7319683192       -4.2404854746       -0.9072195007
 H          1.9723292194       -5.0679043567       -1.5572316585
 H          1.7947236746       -4.4701877955        0.1456982441
 H          2.5893573308       -2.7164008334       -2.2916244178
 H          2.4352914047       -2.1554277064       -0.5825106830
 H          0.2256027310       -3.4399673827       -2.3159976273
