  62
        -98.92972166
 C         -2.2343393855       -0.2259399974        0.3923666078
 C         -3.3348127359       -0.8518593758       -0.2413351539
 C         -4.4502884473        0.0327772666       -0.6369541646
 C         -4.3570776695        1.3537746550       -0.4133822084
 C         -5.3913505739        2.4076910920       -0.6976031047
 C         -6.2604143382        2.6645900485        0.5452078586
 C         -7.4717845850        1.7434413283        0.6862560392
 H         -8.2135397191        2.0088138263       -0.0699308707
 H         -7.9165071761        1.9398709569        1.6645690047
 C         -7.1731499664        0.2461331861        0.5734720167
 H         -7.9947717348       -0.2952338787        1.0465766878
 H         -6.2660961796        0.0088681984        1.1325007292
 C         -7.0333258525       -0.2337349610       -0.8788531278
 H         -7.3996930013        0.5453166834       -1.5470842539
 H         -7.6757588561       -1.1027521877       -1.0348955991
 C         -5.6159155345       -0.6504320743       -1.2994515467
 H         -5.5166935464       -0.5349953564       -2.3838198469
 H         -5.4700774632       -1.7137658070       -1.0849101697
 H         -6.6207547957        3.6948649411        0.5139196659
 H         -5.6197864259        2.5698266547        1.4259596929
 H         -5.9998302726        2.1299107923       -1.5530562424
 H         -4.8448797680        3.3227949581       -0.9351491130
 O         -3.2692159218        1.9197657575        0.1811943883
 C         -2.1994197103        1.1547644232        0.6020085160
 O         -1.2876187545        1.8085592915        1.1507300140
 O         -3.4083635480       -2.0853606877       -0.4730674248
 C         -1.0147916027       -0.9870890826        0.8847395477
 C          0.0138510841       -1.1368159465       -0.2073595309
 C         -0.3335935378       -1.6025683793       -1.4718015842
 C          0.6275090043       -1.7307116986       -2.4574957859
 C          1.9466219490       -1.3992401987       -2.2039535591
 C          2.3067496640       -0.9424585276       -0.9411357743
 C          1.3388237464       -0.8120783552        0.0455069916
 H          1.6256423490       -0.4327761471        1.0148419123
 N          3.6505923249       -0.6527915492       -0.6484773790
 S          4.0175523111        0.6123752732        0.4077814343
 O          3.7750928352        0.1722119061        1.7585283846
 O          3.3474912167        1.8230693361       -0.0108228247
 C          5.7739325577        0.7457772337        0.1303572242
 C          6.6049879257       -0.1965370027        0.7068375813
 C          7.9690514262       -0.1166416596        0.4767253791
 C          8.4769974629        0.8983662044       -0.3208040057
 C          7.6311069910        1.8381171895       -0.8901612746
 C          6.2651785774        1.7628957226       -0.6655917685
 H          5.5698159609        2.4749599315       -1.0805106157
 H          8.0289072796        2.6280353011       -1.5066486472
 H          9.5392624766        0.9591460367       -0.4973314618
 H          8.6301734362       -0.8438044966        0.9198299472
 H          6.1661658174       -0.9605673086        1.3269117143
 H          4.2243403977       -0.6045094331       -1.4799953124
 H          2.6940342690       -1.4969412379       -2.9766855727
 H          0.3452569706       -2.0892855577       -3.4359760853
 H         -1.3608123117       -1.8675023025       -1.6697644600
 H         -0.5697940918       -0.3437904311        1.6619244661
 C         -1.3663985536       -2.3135232182        1.5471317925
 C         -1.0294260841       -3.6478123240        0.9604043003
 C         -0.2801774990       -3.1496271118        2.1570639897
 H         -0.4606902920       -3.6125463137        3.1154716973
 H          0.7378904442       -2.8187666121        2.0114445417
 H         -1.7471607901       -4.4432684049        1.0891351592
 H         -0.5178115925       -3.6729096331        0.0115659815
 H         -2.2994468827       -2.2527511418        2.0982391607
