  62
        -98.94013609
 C         -2.0189449004       -0.6773139544        0.9203995872
 C         -2.8737275199       -1.1543344984       -0.1042087697
 C         -4.2703777138       -0.6910343897       -0.0379818017
 C         -4.6529491616        0.1367284303        0.9498704969
 C         -6.0258130305        0.7246762662        1.0969769436
 C         -6.1310429919        2.0786319541        0.3814193220
 C         -5.6066280236        2.0611009608       -1.0544717557
 H         -5.7623382204        3.0594631827       -1.4692090784
 H         -4.5283241756        1.8857960026       -1.0381585303
 C         -6.2761264140        1.0200908305       -1.9625752353
 H         -6.5104112648        1.4905281152       -2.9199187036
 H         -7.2198456031        0.6963612800       -1.5219633858
 C         -5.4121780500       -0.2049141509       -2.2678687681
 H         -4.4304006693        0.1194572076       -2.6216791226
 H         -5.8862600220       -0.7600152345       -3.0816925671
 C         -5.2069899297       -1.1841526289       -1.1051743326
 H         -6.1740617218       -1.4526234559       -0.6753220876
 H         -4.7475064177       -2.0896476249       -1.5121665314
 H         -5.5549541733        2.8149304269        0.9468594920
 H         -7.1770980438        2.3906334721        0.3851587784
 H         -6.2254700340        0.8694779534        2.1601429556
 H         -6.7586550378        0.0297778359        0.6914419016
 O         -3.8042909574        0.5747882361        1.9151851573
 C         -2.4760629771        0.1884320214        1.9179345519
 O         -1.8060873672        0.6670750617        2.8562223494
 O         -2.5131151944       -1.9240929112       -1.0299447507
 C         -0.5483259784       -1.0501857135        1.0176438132
 C          0.2904984573       -0.1016012396        0.2015371434
 C          0.0307213616        0.1108837340       -1.1490007617
 C          0.8146427541        0.9792515157       -1.8865119793
 C          1.8734351305        1.6483830403       -1.2969300819
 C          2.1412183269        1.4419889993        0.0492038173
 C          1.3520186702        0.5706755930        0.7888068095
 H          1.5564681185        0.4253992374        1.8411196343
 N          3.2400244579        2.0992913519        0.6421004516
 S          4.7381636401        1.7185741425       -0.0133912861
 O          5.7072172732        2.0848087598        0.9938586478
 O          4.8722719906        2.3635992193       -1.2941093904
 C          4.6744376549       -0.0518942747       -0.2146622368
 C          4.9250541045       -0.8450530145        0.8876846050
 C          4.7782256538       -2.2178651564        0.7731881516
 C          4.3705039997       -2.7699214947       -0.4317791880
 C          4.1241372423       -1.9600029897       -1.5291686907
 C          4.2766342538       -0.5867173550       -1.4234838716
 H          4.0981750778        0.0757672821       -2.2542058380
 H          3.8071300881       -2.3929147321       -2.4641931782
 H          4.2400447359       -3.8369769286       -0.5146552060
 H          4.9720338693       -2.8513829471        1.6239402953
 H          5.2403739090       -0.3768313081        1.8066621676
 H          3.2711372438        1.9938897731        1.6464957838
 H          2.5010495449        2.3210674043       -1.8590713525
 H          0.6006003716        1.1366439928       -2.9328905096
 H         -0.7877276665       -0.4187944836       -1.6122566353
 H         -0.2872991985       -0.8943627465        2.0761739765
 C         -0.2739984249       -2.5138571853        0.6943759773
 C          0.5658965875       -2.9672916261       -0.4586446395
 C          1.0952500884       -3.0771895228        0.9371324426
 H          1.1812383317       -4.0536832429        1.3884451157
 H          1.8697737045       -2.3834566178        1.2293665193
 H          0.2590438953       -3.8652355364       -0.9724008582
 H          0.9964850165       -2.2197953585       -1.1059097952
 H         -1.1135755394       -3.1495060885        0.9542704662
