  62
        -98.94258006
 C         -1.2224668499       -1.6174342318        0.1966694360
 C         -1.5993140411       -0.6242125737        1.1289410300
 C         -2.8504810904        0.1047562309        0.8594710764
 C         -3.5580055907       -0.1920363290       -0.2467976044
 C         -4.8826108531        0.3331502891       -0.7618150960
 C         -5.5507467362        1.5355039487       -0.1021910412
 C         -4.8417248099        2.8694125125       -0.3470671438
 H         -5.0298296755        3.1732616108       -1.3799369532
 H         -5.2844357429        3.6236968917        0.3067392110
 C         -3.3281018302        2.8638529265       -0.1466646989
 H         -2.9417342723        3.8442163342       -0.4394590377
 H         -2.8644258891        2.1358321211       -0.8157994045
 C         -2.8490300144        2.5927993163        1.2769261904
 H         -3.2584269220        3.3452185776        1.9548432679
 H         -1.7596934568        2.6987731371        1.2708227982
 C         -3.1864878078        1.2001594192        1.8301666295
 H         -2.5642429551        1.0291616464        2.7139202675
 H         -4.2253183890        1.1451313317        2.1454839334
 H         -5.6790552783        1.3528270643        0.9607568831
 H         -6.5530437236        1.6125838576       -0.5320325987
 H         -5.5717116299       -0.5173044446       -0.7132386544
 H         -4.7312243911        0.5443786897       -1.8253630552
 O         -3.1436722415       -1.1487530676       -1.1297600689
 C         -1.9613124815       -1.8507290905       -0.9606416699
 O         -1.6961014006       -2.6374033350       -1.8895283200
 O         -0.9157664514       -0.3566770067        2.1550216309
 C          0.0812222639       -2.3635591280        0.4082950007
 C          1.1025563034       -1.9291835029       -0.6159408362
 C          1.9950216061       -2.7975261849       -1.2318894617
 C          2.9261756114       -2.3155089030       -2.1362456454
 C          3.0100076857       -0.9649646221       -2.4234373456
 C          2.1246219803       -0.0875089167       -1.8077721402
 C          1.1785154018       -0.5777681771       -0.9233471477
 H          0.4788012790        0.1110466196       -0.4768515590
 N          2.1690767035        1.2932168791       -2.0529274337
 S          1.8714672577        2.3518460001       -0.7893085280
 O          0.4611431581        2.4163587349       -0.5047160449
 O          2.4830518370        3.5925906009       -1.2188792700
 C          2.7865678590        1.6797674656        0.5870933583
 C          2.1463103506        1.0675310590        1.6444953132
 C          2.9143083636        0.5146530491        2.6584758632
 C          4.2968782202        0.5819595180        2.6003486817
 C          4.9250981948        1.2088117778        1.5343665373
 C          4.1648528272        1.7603694656        0.5173490222
 H          4.6138323684        2.2665777834       -0.3218840163
 H          6.0008056058        1.2658180869        1.4927713930
 H          4.8866583511        0.1460531529        3.3912612518
 H          2.4168811911        0.0297720409        3.4834861781
 H          1.0687710303        1.0155317948        1.6735845154
 H          2.9399088356        1.6009216856       -2.6270827845
 H          3.7437435640       -0.5922097532       -3.1214261066
 H          3.6061121970       -3.0021230828       -2.6171155276
 H          1.9567683985       -3.8513748299       -1.0103922906
 H          0.4464192109       -2.0316649825        1.3928431843
 C         -0.1400002414       -3.8601017411        0.4524214186
 C          0.7511733018       -4.7295126649        1.2870807373
 C         -0.6618709510       -4.4757435994        1.7152964585
 H         -1.3799286229       -5.2782581098        1.6386502628
 H         -0.8333891718       -3.8170115037        2.5542400025
 H          1.0036249703       -5.7123744172        0.9187029634
 H          1.5415941694       -4.2484019704        1.8429695568
 H         -0.5118096602       -4.2544635422       -0.4861132653
