  62
        -98.93876482
 C         -1.8367204053       -0.8222179895        0.3319708715
 C         -2.4322838490       -0.1826863919       -0.7797530267
 C         -3.5064956914        0.7820277188       -0.4780213156
 C         -3.8292904259        1.0239216225        0.8043049409
 C         -4.9186741373        1.9225019583        1.3209905081
 C         -6.2125207807        1.1256526767        1.5596418370
 C         -7.1246457291        0.9980977404        0.3401514116
 H         -7.9284697285        0.3080897385        0.6068097726
 H         -7.5816059627        1.9677202334        0.1313466400
 C         -6.4461972096        0.4926638852       -0.9358179405
 H         -7.2229963824        0.0976836507       -1.5933963053
 H         -5.7762163707       -0.3343508184       -0.6939931023
 C         -5.6734787344        1.5892845269       -1.6840006345
 H         -5.9791680132        1.5958735603       -2.7322769496
 H         -5.9503210435        2.5614158817       -1.2762023253
 C         -4.1446729292        1.4401752247       -1.6706463251
 H         -3.8303221731        0.8298309837       -2.5232451989
 H         -3.6879402872        2.4258962561       -1.8106911895
 H         -6.7800161665        1.6100429769        2.3568936829
 H         -5.9322771159        0.1310592472        1.9160122395
 H         -4.5705755211        2.3154379764        2.2787194805
 H         -5.0875075469        2.7534935412        0.6425535731
 O         -3.2020554025        0.4120924712        1.8472620446
 C         -2.1994947871       -0.5180496634        1.6428469962
 O         -1.7079770287       -0.9876926320        2.6900284402
 H          0.4029860083        0.4680607820        0.7558415397
 C          0.9007305507        0.0181584838       -0.0949484092
 C          0.4387154385       -1.1994173213       -0.5805859514
 C          1.0972433117       -1.7732202042       -1.6596071246
 C          2.1661549619       -1.1241989711       -2.2546934444
 C          2.6074744957        0.0980542024       -1.7838913415
 C          1.9690418874        0.6703646986       -0.6901426535
 N          2.4204558543        1.9023554698       -0.1885905670
 S          4.0698115872        2.1339738914       -0.0327068815
 O          4.2172125342        3.0887022043        1.0436666925
 O          4.6266833017        2.5295975923       -1.3024341947
 C          4.7282915454        0.5448938297        0.4425388626
 C          5.6755605270       -0.0718280433       -0.3490337462
 C          6.1532511286       -1.3178819488        0.0244517470
 C          5.6743220256       -1.9241828711        1.1751301884
 C          4.7249729268       -1.2900483913        1.9622114341
 C          4.2459560601       -0.0431607880        1.5951299261
 H          3.5101144090        0.4754584122        2.1891457236
 H          4.3522512019       -1.7622758995        2.8570988105
 H          6.0419779015       -2.8964824569        1.4626358361
 H          6.8928234609       -1.8123537443       -0.5842993377
 H          6.0166037573        0.4340904608       -1.2375306919
 H          1.9233253232        2.2221555645        0.6290258885
 H          3.4250385422        0.6241668530       -2.2493442110
 H          2.6602474425       -1.5755474756       -3.1012599802
 H          0.7674246605       -2.7242130250       -2.0434488587
 C         -0.7336601259       -1.8434226903        0.1200942197
 H         -0.4028343769       -2.1426675595        1.1256044312
 C         -1.2758294059       -3.0623817180       -0.5963746483
 C         -0.6629382016       -4.4095968479       -0.3632786476
 C         -2.0164890004       -4.0950442735        0.1972581855
 H         -2.8828601529       -4.5629553252       -0.2457256946
 H         -2.1066582376       -3.9314822760        1.2616620813
 H         -0.6016845532       -5.0989154105       -1.1917723942
 H          0.1670610993       -4.4694268728        0.3241698962
 H         -1.6490674285       -2.8308524584       -1.5871452611
 O         -2.0913393034       -0.4071168225       -1.9701558553
