  62
        -98.94085714
 C         -1.6773816731       -0.1856792592        0.6689586881
 C         -2.9277567062       -0.1990761782        1.3386355747
 C         -4.0857246543       -0.6155481427        0.5403187398
 C         -3.9186101794       -0.9450834673       -0.7530767053
 C         -4.9954717781       -1.4109596444       -1.6950921747
 C         -5.7918540549       -0.2709307615       -2.3445645980
 C         -6.7631059056        0.4564200398       -1.4139030247
 H         -7.4065391532        1.0754360928       -2.0423723332
 H         -7.4013205902       -0.2730035249       -0.9141650458
 C         -6.0859371524        1.3529205967       -0.3677652612
 H         -5.0519950695        1.5427460487       -0.6654479241
 H         -6.5915433175        2.3207054136       -0.3351314534
 C         -6.0962221524        0.7886536441        1.0530410825
 H         -7.1253746586        0.7188260402        1.4123018132
 H         -5.5598588308        1.4850633664        1.7027834531
 C         -5.4362440033       -0.5896799854        1.1901021137
 H         -5.2985972503       -0.7989884184        2.2538374537
 H         -6.0791649029       -1.3587936370        0.7624243872
 H         -5.0881889826        0.4479280316       -2.7707474526
 H         -6.3658431818       -0.7021953330       -3.1679620702
 H         -4.4944687429       -1.9740180235       -2.4854014963
 H         -5.6777268215       -2.0801378662       -1.1700874745
 O         -2.7068550678       -0.9040869545       -1.3647204076
 C         -1.5614440979       -0.5013216271       -0.6861253919
 O         -0.5417709650       -0.4774459528       -1.3982283842
 O         -3.0692823864        0.1249840942        2.5479687217
 C         -0.4624605898        0.2656748716        1.4597989614
 C          0.3059569643        1.3012811171        0.6800006131
 C         -0.3229069327        2.5050471839        0.3702757911
 C          0.3312254579        3.4763275283       -0.3609259642
 C          1.6332942173        3.2748009194       -0.7849107766
 C          2.2701697415        2.0787602538       -0.4799777492
 C          1.6056092544        1.0997924704        0.2461015641
 H          2.1088712238        0.1708336348        0.4538897346
 N          3.5780028006        1.8341217339       -0.9177341143
 S          4.6442661534        0.9564375378        0.0169816705
 O          4.4469853504        1.2023617478        1.4271802777
 O          5.9506462677        1.3012559735       -0.5042013316
 C          4.3147096490       -0.7519790118       -0.3593673232
 C          3.9501021376       -1.1064739078       -1.6425047483
 C          3.7478925320       -2.4460218946       -1.9334748782
 C          3.9219422868       -3.4039371522       -0.9465626490
 C          4.2926063038       -3.0319922187        0.3364803871
 C          4.4911199126       -1.6932610385        0.6355064028
 H          4.7676181947       -1.3588501062        1.6229335057
 H          4.4255526768       -3.7783132860        1.1038033157
 H          3.7640809605       -4.4457619104       -1.1770104702
 H          3.4524820541       -2.7376109013       -2.9284709489
 H          3.8161195202       -0.3387341853       -2.3859877916
 H          4.0260676564        2.5957890891       -1.4044730035
 H          2.1485267322        4.0330022582       -1.3549845718
 H         -0.1715998226        4.4018229176       -0.5988741546
 H         -1.3396546385        2.6632638471        0.7044356710
 H         -0.8860732903        0.7612239062        2.3500568348
 C          0.4104469467       -0.8688110264        1.9736120671
 C         -0.1893637277       -2.1924697805        2.3401778723
 C          0.7193040173       -2.0845122841        1.1542288568
 H          1.7104609726       -2.5080544692        1.2252834999
 H          0.2921777734       -2.1444265641        0.1659821413
 H          0.1733902317       -2.6931006793        3.2251548927
 H         -1.2469535258       -2.3259219772        2.1645212706
 H          1.2047867836       -0.5034236197        2.6188023157
