  62
        -98.94802147
 C         -1.2695503604       -1.0470541587        0.0032367131
 C         -1.6221132728        0.0541350094        0.8188758549
 C         -2.6680626907        0.9388517783        0.2915662309
 C         -3.1747488874        0.6991044056       -0.9316436136
 C         -4.2724677037        1.4947055501       -1.5754927094
 C         -5.6525971107        0.9063682478       -1.2498405576
 C         -5.8710373178        0.6300345572        0.2376420209
 H         -6.8873411615        0.2468886705        0.3512847023
 H         -5.1901255873       -0.1626480816        0.5555581358
 C         -5.6813385787        1.8539687983        1.1444491238
 H         -6.5021929622        1.8881582179        1.8638077995
 H         -5.7328477713        2.7670549170        0.5502872670
 C         -4.3818805762        1.8488393924        1.9515290299
 H         -4.2811619732        0.8955933963        2.4763805050
 H         -4.4484001811        2.6348405200        2.7084643347
 C         -3.0974627673        2.0954015309        1.1496965904
 H         -3.2039312882        3.0008328782        0.5479390646
 H         -2.2837124086        2.2571046262        1.8631741223
 H         -6.4156696746        1.5988899162       -1.6097683623
 H         -5.7635773792       -0.0346624125       -1.7934668077
 H         -4.2136384503        2.5264369173       -1.2334418200
 H         -4.1222867659        1.4731174016       -2.6563875389
 O         -2.7695906910       -0.3344798024       -1.7126755229
 C         -1.8074099588       -1.2313785884       -1.2700405237
 O         -1.5258927826       -2.1269952831       -2.0888878519
 O         -1.0828603294        0.2867014881        1.9352337066
 C         -0.2007816813       -2.0075732665        0.4887475581
 C          1.0249887716       -1.9262992155       -0.3887611367
 C          1.7953278646       -3.0299325027       -0.7336734492
 C          2.9273347216       -2.8749128691       -1.5153560551
 C          3.3323005776       -1.6237140581       -1.9439658847
 C          2.5713192813       -0.5127048698       -1.5988596444
 C          1.4268225279       -0.6754124160       -0.8360356775
 H          0.8283952954        0.1916211628       -0.6032923032
 N          2.9410411699        0.7803324427       -1.9990452312
 S          2.6803783955        2.0609457152       -0.9541867113
 O          1.2870436900        2.4313139675       -0.9466798913
 O          3.5991675310        3.0824526468       -1.4114333373
 C          3.2006030287        1.4559238915        0.6419521488
 C          2.2835937353        1.1801081463        1.6348119794
 C          2.7373020468        0.6580876578        2.8366952530
 C          4.0895162933        0.4227103185        3.0257499465
 C          5.0002790939        0.7142179094        2.0210793533
 C          4.5534434217        1.2326343597        0.8175621180
 H          5.2305842132        1.4828079896        0.0170739967
 H          6.0527192744        0.5358510433        2.1714923296
 H          4.4344446076        0.0123559306        3.9616851692
 H          2.0205024622        0.4344488667        3.6108921986
 H          1.2330868460        1.3621589180        1.4687992158
 H          3.8348588128        0.8456884778       -2.4631816582
 H          4.2195229397       -1.5055159288       -2.5466483327
 H          3.5100285127       -3.7419375771       -1.7867885401
 H          1.5049148393       -4.0119291156       -0.3982914780
 H          0.0850212306       -1.6423268491        1.4876206215
 C         -0.7558577382       -3.4100920496        0.6244342188
 C         -0.2262618965       -4.3358347656        1.6776195428
 C         -1.5941463154       -3.7419953591        1.8215902284
 H         -2.4544530845       -4.3805103757        1.6881117311
 H         -1.7399214478       -2.9625143381        2.5553695581
 H         -0.1489596713       -5.3876831204        1.4471011020
 H          0.5555683310       -3.9648945126        2.3228412079
 H         -1.0551501943       -3.8315821343       -0.3284176691
