  62
        -98.94318421
 C          0.8405333603        1.6817778798       -0.8493305303
 C          1.9917862903        2.0492915095       -0.1054251501
 C          3.1284183101        1.1255399493       -0.1635704400
 C          3.0392235600        0.0092741893       -0.9088546300
 C          4.1174214298       -1.0255372009       -1.0851715099
 C          4.1745363394       -2.0670038409        0.0404720701
 C          4.7225862593       -1.5588045211        1.3743049502
 H          4.9148882991       -2.4346445111        1.9971274902
 H          5.6790619095       -1.0614692412        1.2104805804
 C          3.7723462394       -0.6169146209        2.1271026501
 H          3.7200834792       -0.9127552409        3.1772511201
 H          2.7638800295       -0.7104198907        1.7170622200
 C          4.1833769297        0.8550467990        2.0918910302
 H          5.1304025197        0.9854769488        2.6206492503
 H          3.4215011798        1.4374934092        2.6165334101
 C          4.3298057301        1.4329543390        0.6783054602
 H          4.4098416203        2.5198968890        0.7586439803
 H          5.2342442601        1.0497788689        0.2060694004
 H          4.8144992293       -2.8828056910       -0.3032420998
 H          3.1701160193       -2.4650978907        0.1920519000
 H          5.0853681399       -0.5316210011       -1.1772133197
 H          3.9005411798       -1.5419396008       -2.0224358899
 O          1.9310164400       -0.2965701304       -1.6309959202
 C          0.7992679802        0.5140792698       -1.6131162703
 O         -0.1290466598        0.0802530800       -2.3173671605
 O          2.0658513604        3.1110284295        0.5701832299
 C         -0.3544444195        2.6110475901       -0.7380679904
 C         -1.2251441697        2.2090706802        0.4255400194
 C         -1.6503843997        3.1502805903        1.3560347194
 C         -2.4442748599        2.7734831604        2.4246651593
 C         -2.8399983202        1.4569171805        2.5753152792
 C         -2.4169626303        0.5067428804        1.6522965192
 C         -1.6049635000        0.8847317403        0.5931732793
 H         -1.2781189901        0.1414382702       -0.1173844606
 N         -2.7792273206       -0.8404202895        1.7869097391
 S         -3.1231144706       -1.7438335494        0.4172995691
 O         -3.7394717002       -0.9326781392       -0.6054592610
 O         -3.9273798009       -2.8423932292        0.9150861089
 C         -1.5597879606       -2.4010058697       -0.1154658307
 C         -1.2929399304       -2.5089054697       -1.4644810507
 C         -0.1041253005       -3.0978961900       -1.8654423505
 C          0.7882481993       -3.5679529002       -0.9164573004
 C          0.5047477191       -3.4508455002        0.4366966696
 C         -0.6814922109       -2.8645112499        0.8446053894
 H         -0.9356296410       -2.7563197799        1.8861861894
 H          1.2019919789       -3.8169119403        1.1743093797
 H          1.7115316892       -4.0267302604       -1.2349583903
 H          0.1222733396       -3.1734468200       -2.9166331905
 H         -2.0016566902       -2.1125865096       -2.1734383508
 H         -3.4233980907       -1.0382551594        2.5389381690
 H         -3.4668233704        1.1613867206        3.4029186391
 H         -2.7645446899        3.5124208705        3.1433620792
 H         -1.3422582494        4.1794584402        1.2442707894
 H          0.0751832307        3.5975414100       -0.4989429704
 C         -1.1399887993        2.7681493802       -2.0310624306
 C         -2.4459562694        2.0911774005       -2.3044518508
 C         -2.4103567291        3.5666658805       -2.0491413507
 H         -2.5881220888        4.2394510006       -2.8745481607
 H         -2.7919521492        3.9172696306       -1.1018934608
 H         -2.6207907893        1.7423294206       -3.3112348408
 H         -2.8666495696        1.4380108906       -1.5550370608
 H         -0.4800702491        2.8866543201       -2.8852442705
