  62
        -98.93432610
 C         -2.3247943385       -1.1821787484        0.0793055132
 C         -3.2601831570       -0.5285745132        0.9163515416
 C         -4.1434428749        0.4754708840        0.2912719645
 C         -3.9857972976        0.7456520020       -1.0177352955
 C         -4.7316697375        1.7449102531       -1.8616632421
 C         -4.2794358939        3.1915439584       -1.6061915506
 C         -4.1042515612        3.5596148538       -0.1351953849
 H         -3.3751201136        2.8857741627        0.3190190655
 H         -3.6828816588        4.5675570309       -0.0926597855
 C         -5.3862808670        3.5542418148        0.6941848398
 H         -6.1003642340        4.2537006831        0.2539522164
 H         -5.1295425973        3.9252638104        1.6898643267
 C         -6.0727959859        2.1963410600        0.8573841615
 H         -6.6285149353        1.9265934656       -0.0366504120
 H         -6.8083891925        2.2985017471        1.6606056336
 C         -5.1427600520        1.0569595525        1.2622899085
 H         -4.5665473109        1.3596334236        2.1443919484
 H         -5.7543792322        0.2102776897        1.5974680285
 H         -3.3166682452        3.3368491414       -2.1022315910
 H         -5.0023604115        3.8657181475       -2.0683983371
 H         -4.5199829494        1.4940774811       -2.9033943525
 H         -5.8013390523        1.6401354477       -1.7065182142
 O         -3.0327265228        0.1315152692       -1.7740437509
 C         -2.1812828982       -0.8347775756       -1.2643992141
 O         -1.3683568156       -1.2809340746       -2.0937799609
 O         -3.3545070291       -0.7648531620        2.1521043463
 C         -1.4182083003       -2.2233263489        0.7093184743
 C          0.0174612399       -1.9743489407        0.3182028433
 C          0.8272648254       -2.9210059243       -0.2937020509
 C          2.1396338418       -2.6180794808       -0.6134061806
 C          2.6710902669       -1.3730385460       -0.3352227920
 C          1.8715868927       -0.4182535681        0.2802008067
 C          0.5617632159       -0.7287206477        0.6095340673
 H         -0.0614760368        0.0166295715        1.0904505243
 N          2.3961109408        0.8585618824        0.5483922074
 S          3.8650989230        0.9652285534        1.3534552891
 O          4.0665442320       -0.1597559825        2.2373977139
 O          3.8609636149        2.2735287916        1.9714079785
 C          5.0769220415        0.9433560148        0.0496930287
 C          6.0995137340        0.0153979588        0.0759275826
 C          7.0378023424        0.0237172020       -0.9445064210
 C          6.9381049675        0.9556462563       -1.9661342719
 C          5.9064242333        1.8827206592       -1.9761048524
 C          4.9657592888        1.8804870042       -0.9586693146
 H          4.1507244472        2.5843537744       -0.9285473301
 H          5.8316166243        2.6054917107       -2.7725927221
 H          7.6682157086        0.9595639894       -2.7600031756
 H          7.8405073862       -0.6959758594       -0.9386599745
 H          6.1329358408       -0.6939266656        0.8874354548
 H          1.7248523522        1.4986444280        0.9470621241
 H          3.6897415610       -1.1323322491       -0.5916828765
 H          2.7556710941       -3.3620026367       -1.0950696323
 H          0.4268271670       -3.8903491447       -0.5399019231
 H         -1.5048468262       -2.0370110948        1.7938274197
 C         -1.8665831466       -3.6598022545        0.4851131789
 C         -3.3045491004       -3.9896343628        0.2209210004
 C         -2.2840830886       -4.1697673800       -0.8605243279
 H         -2.0043491181       -5.1762010571       -1.1357736414
 H         -2.2738409757       -3.4724646901       -1.6831380651
 H         -3.7229366056       -4.8681639372        0.6888424459
 H         -4.0002462963       -3.1672865187        0.1360772753
 H         -1.3276174195       -4.3540302865        1.1227768973
