  62
        -98.94324953
 C          1.2906307603        1.0228060682       -0.0162826474
 C          1.7957721883       -0.0511876562        0.7555789428
 C          2.7386836231       -0.9465260433        0.0718604394
 C          3.0467575552       -0.7160469299       -1.2175773641
 C          4.0311235808       -1.5174062063       -2.0184790073
 C          5.4427164542       -0.9222106231       -1.9200911963
 C          5.8903319577       -0.6273139322       -0.4884198645
 H          6.9101164907       -0.2398257367       -0.5404521293
 H          5.2652534973        0.1683502554       -0.0767244369
 C          5.8513318795       -1.8402710308        0.4517283706
 H          6.7751332373       -1.8614742854        1.0337135380
 H          5.8163977652       -2.7606625013       -0.1324319464
 C          4.6943051412       -1.8298885057        1.4523610777
 H          4.8847285440       -2.6052143663        2.1991757971
 H          4.6721374122       -0.8703873856        1.9749526220
 C          3.3016404258       -2.0919427519        0.8653120180
 H          3.3210469354       -3.0046854566        0.2662150157
 H          2.6126328346       -2.2417782218        1.7016107939
 H          5.4643401263        0.0125242243       -2.4852926003
 H          6.1432803031       -1.6170234679       -2.3870244963
 H          4.0337453868       -2.5450071620       -1.6597077201
 H          3.7146800162       -1.5079167190       -3.0630438335
 O          2.5222713006        0.3115704035       -1.9341477787
 C          1.6340301130        1.2093121478       -1.3551143768
 O          1.2272884127        2.0985833297       -2.1262148248
 H         -0.8058739448       -0.0838917477       -0.6925434489
 C         -1.4709171145        0.7704414782       -0.6534281737
 C         -1.0427572624        1.9375459162       -0.0362680989
 C         -1.9218885394        3.0143262756        0.0070636113
 C         -3.1856407989        2.9205855126       -0.5500799676
 C         -3.6057112272        1.7530307883       -1.1627643268
 C         -2.7329200896        0.6774118990       -1.2195827379
 N         -3.1716162440       -0.5390533109       -1.8058031134
 S         -4.0796845797       -1.4697073338       -0.7434745781
 O         -4.2464458941       -2.7574827132       -1.3782378136
 O         -5.2847135278       -0.7478371038       -0.4269421934
 C         -3.0437307437       -1.6142829689        0.7001848997
 C         -3.0966628611       -0.6266804499        1.6633049232
 C         -2.1958408288       -0.6703334476        2.7150608371
 C         -1.2583580897       -1.6890201139        2.7830421967
 C         -1.2215080415       -2.6752493871        1.8095755547
 C         -2.1160284183       -2.6354887458        0.7525412172
 H         -2.1155686748       -3.3800973695       -0.0282323454
 H         -0.4878318648       -3.4637251504        1.8642102752
 H         -0.5413271514       -1.7052552081        3.5878465130
 H         -2.2172427340        0.0979934195        3.4710877911
 H         -3.8358529197        0.1528291736        1.5721068990
 H         -2.4051360080       -1.1042655153       -2.1455478148
 H         -4.5924474215        1.6525047448       -1.5839350987
 H         -3.8537313403        3.7669430021       -0.5043204561
 H         -1.6151143173        3.9308643457        0.4844215989
 C          0.3107395170        1.9790528557        0.6310468736
 H          0.1812319555        1.6047977989        1.6588574963
 C          0.8915062975        3.3784906369        0.6939247697
 C          0.6314237240        4.2624089597        1.8761802334
 C          1.9880992834        3.6593905266        1.6762672981
 H          2.8025036644        4.2997170441        1.3722897042
 H          2.2885656083        2.8502427274        2.3260445188
 H          0.5149906118        5.3229399009        1.7105078364
 H          0.0195569610        3.8684806855        2.6735751886
 H          0.9675768060        3.8395672629       -0.2843899679
 O          1.4692606389       -0.2527979415        1.9544342729
