  62
        -98.94137001
 C         -2.2426743070       -0.6863152935       -0.2886696693
 C         -3.4768771258       -0.9209277820        0.3680253137
 C         -4.2408850064        0.2720178268        0.7467286554
 C         -3.7297050616        1.4936297958        0.5090171754
 C         -4.3720624316        2.8066310379        0.8661245231
 C         -5.3958367925        3.3022537541       -0.1646948502
 C         -6.7183354630        2.5348190067       -0.1893590157
 H         -7.1264859573        2.4846357138        0.8205433401
 H         -7.4155946908        3.1182795482       -0.7938555613
 C         -6.6187988435        1.1205474591       -0.7778904305
 H         -7.4392552417        0.9599247252       -1.4807963136
 H         -5.6892907533        1.0263221294       -1.3439608264
 C         -6.6827314213       -0.0027261627        0.2569940137
 H         -7.6620415714       -0.0006295727        0.7405672168
 H         -6.5663526045       -0.9561855547       -0.2643874841
 C         -5.6022688234        0.0780416482        1.3434526428
 H         -5.5931302117       -0.8679818485        1.8903032142
 H         -5.8298487407        0.8830722903        2.0418925617
 H         -5.6112674499        4.3476246492        0.0681026670
 H         -4.9369097440        3.2701978089       -1.1555263066
 H         -4.8473384061        2.7275555635        1.8443210595
 H         -3.5646048232        3.5392893341        0.9306453612
 O         -2.5216698899        1.6776248575       -0.0860697410
 C         -1.7567957740        0.6015462045       -0.5151541710
 O         -0.6927391137        0.9303313641       -1.0746400468
 O         -3.9173758468       -2.0727349679        0.6249018923
 C         -1.4135689338       -1.8900002152       -0.7065074086
 C         -0.1708640279       -1.9169460350        0.1479695276
 C         -0.2619405315       -2.3868779249        1.4555585399
 C          0.8356385946       -2.3558144009        2.2944693349
 C          2.0456566108       -1.8500160273        1.8511277223
 C          2.1433979200       -1.3705015269        0.5524881772
 C          1.0430926713       -1.4170930107       -0.2946477865
 H          1.1284498770       -1.0267028761       -1.2962977223
 N          3.3691795128       -0.8531650810        0.0853011321
 S          4.1732772913        0.2309024955        1.1026021796
 O          4.8618687820       -0.5259874656        2.1189899736
 O          3.2621576580        1.2458626796        1.5842293762
 C          5.3573062742        0.9347597258       -0.0276139355
 C          6.5931461797        0.3327780396       -0.1675264841
 C          7.4993462893        0.8667514294       -1.0699149413
 C          7.1559090037        1.9858604161       -1.8135756942
 C          5.9114266282        2.5792351563       -1.6619073983
 C          4.9999005945        2.0497893042       -0.7619794583
 H          4.0241606451        2.4834203001       -0.6066288206
 H          5.6470335746        3.4501305381       -2.2400701522
 H          7.8624377322        2.4007763125       -2.5149456884
 H          8.4684298425        0.4100108110       -1.1898100095
 H          6.8167526529       -0.5300180186        0.4377336384
 H          3.2622078809       -0.4416185374       -0.8329781990
 H          2.9052338361       -1.8023789220        2.4998463768
 H          0.7503731095       -2.7230590782        3.3063888990
 H         -1.2121975806       -2.7619450572        1.8100346092
 H         -2.0240751519       -2.7657954104       -0.4481911677
 C         -1.1432688848       -1.9054037422       -2.1959376577
 C         -0.6543606693       -3.1669955495       -2.8404592906
 C         -2.0508002843       -2.6875156484       -3.0955835004
 H         -2.2880136341       -2.2800299610       -4.0669221807
 H         -2.8682812058       -3.2236307358       -2.6363162793
 H          0.0685789262       -3.0928405937       -3.6382677827
 H         -0.5221333079       -4.0295212133       -2.2051056555
 H         -0.7684540831       -0.9618785499       -2.5737581714
