  62
        -98.94965617
 C          1.6889508275        1.2299137316        0.3372845824
 C          1.3286833860        0.1629742146       -0.5186159207
 C          1.9027311580       -1.1444969670       -0.1888598103
 C          2.6845842835       -1.2743945362        0.8979056260
 C          3.3128290920       -2.5504159758        1.3892232321
 C          4.6303812568       -2.9131747028        0.6898855430
 C          4.4899029271       -3.4098157816       -0.7495936787
 H          5.4545563176       -3.8325981450       -1.0372200653
 H          3.7570726240       -4.2165838025       -0.7826993903
 C          4.1063221214       -2.3204808858       -1.7606609801
 H          4.7416069342       -2.4050975786       -2.6450914106
 H          4.2932183651       -1.3370226437       -1.3234870466
 C          2.6549705755       -2.3814974250       -2.2365010086
 H          2.4887949928       -3.3089376702       -2.7887379357
 H          2.4827974908       -1.5456546649       -2.9188740585
 C          1.6184673282       -2.2931309682       -1.1085541689
 H          0.6341211590       -2.1260067419       -1.5529861930
 H          1.5869438484       -3.2269112251       -0.5469645880
 H          5.2880194034       -2.0411314135        0.7128477278
 H          5.1037169609       -3.7017982676        1.2794151927
 H          3.5144666362       -2.4060710186        2.4531296558
 H          2.6004179973       -3.3694803213        1.2830004241
 O          2.9871772775       -0.2286435492        1.7135383241
 C          2.4982018128        1.0419167880        1.4554690251
 O          2.8487664677        1.9079601792        2.2851235237
 H         -0.4800913384        1.1499415735        1.6448410424
 C         -1.0456905068        1.7207981759        0.9223568023
 C         -0.3847077770        2.5481485689        0.0233884277
 C         -1.1431760978        3.2782994036       -0.8836153320
 C         -2.5220024938        3.1566503273       -0.9051321878
 C         -3.1702923979        2.2906681484       -0.0435528959
 C         -2.4207089065        1.5643436415        0.8741599155
 N         -3.0245048527        0.6460787983        1.7602213301
 S         -2.6149031980       -0.9685691132        1.5581094087
 O         -3.4217835246       -1.6825198408        2.5253582761
 O         -1.1890428340       -1.1360099377        1.6688260691
 C         -3.1876018635       -1.3582496363       -0.0865432605
 C         -2.4390436415       -0.9660472161       -1.1780887840
 C         -2.9416504802       -1.2051203278       -2.4486130792
 C         -4.1721976605       -1.8231812347       -2.6061484147
 C         -4.9109689018       -2.2106822319       -1.4980842213
 C         -4.4184490512       -1.9716846045       -0.2257367156
 H         -4.9549450795       -2.2559692612        0.6652055973
 H         -5.8670290060       -2.6934684291       -1.6213378213
 H         -4.5561006372       -2.0038630478       -3.5978164074
 H         -2.3603609550       -0.9000712085       -3.3040467456
 H         -1.4807777729       -0.4894801770       -1.0374403350
 H         -4.0323860785        0.7233324196        1.7963486459
 H         -4.2429921448        2.1734678619       -0.0788184095
 H         -3.0973104193        3.7294220946       -1.6162325567
 H         -0.6526324590        3.9389424222       -1.5796977844
 C          1.1225031164        2.6155317589        0.0870527097
 H          1.4059042539        3.2249460642        0.9581870774
 C          1.7462371613        3.2178431940       -1.1561469430
 C          1.9563872727        4.6979075751       -1.2606772739
 C          3.1293544788        3.7863130485       -1.0651011104
 H          3.8077732063        3.6296690858       -1.8902834915
 H          3.6084048907        3.7643702644       -0.0966780407
 H          1.6470660346        5.3078995297       -0.4254098681
 H          1.8335639258        5.1700096534       -2.2238002425
 H          1.4885514188        2.6701120327       -2.0554547372
 O          0.5599246732        0.2970379201       -1.5072012697
