  62
        -98.93717757
 C         -2.5778496224       -1.2989892870       -0.2540284983
 C         -2.1137426245       -0.0464452366       -0.7302765279
 C         -3.1407109709        0.9964362642       -0.8971876995
 C         -4.4251021907        0.7193470869       -0.6132179008
 C         -5.5564980356        1.7020324243       -0.6902102379
 C         -5.7653657097        2.4118137848        0.6547872346
 C         -4.4803373391        2.9742520787        1.2629861564
 H         -4.7539348536        3.4790685175        2.1920826563
 H         -3.8184622779        2.1472388773        1.5315194713
 C         -3.7227194529        3.9524491292        0.3543585683
 H         -4.3868148360        4.3208408228       -0.4284913145
 H         -3.4129629365        4.8141786226        0.9493948546
 C         -2.4574553264        3.3766674003       -0.2848364776
 H         -1.8267527529        2.9257557608        0.4865660015
 H         -1.8919939240        4.2038844042       -0.7225736779
 C         -2.6816860431        2.3391734669       -1.3921860511
 H         -3.3783156024        2.7366459628       -2.1332345039
 H         -1.7186260068        2.1660063166       -1.8814228479
 H         -6.4853149865        3.2194591733        0.5111147524
 H         -6.1929481306        1.6966099208        1.3612588291
 H         -5.3456841176        2.4316723884       -1.4694946455
 H         -6.4668474834        1.1587820552       -0.9491275481
 O         -4.8346162167       -0.4952578307       -0.1672089776
 C         -3.9259285811       -1.5168447405        0.0487210232
 O         -4.4347607891       -2.5605493825        0.5040049172
 H          0.9201835784       -1.8503478194       -0.7231688908
 C          0.7558753393       -1.6985983202        0.3321993792
 C         -0.4877119162       -1.9727618257        0.8762020373
 C         -0.6930367973       -1.7317786458        2.2312611188
 C          0.3256151616       -1.2323450769        3.0210403356
 C          1.5666063491       -0.9564547731        2.4743358610
 C          1.7760067053       -1.1808301454        1.1206218485
 N          3.0327843690       -0.9043585155        0.5505183818
 S          3.8294223179        0.4959785745        1.0580480069
 O          4.5144193800        0.2025154847        2.2936920891
 O          2.9200436091        1.6187812375        1.0971249682
 C          5.0171752244        0.6973313376       -0.2549832633
 C          6.2630265867        0.1123379907       -0.1338721717
 C          7.1701564387        0.2484138713       -1.1728065547
 C          6.8175780771        0.9611782201       -2.3090100697
 C          5.5630586912        1.5430889281       -2.4159257266
 C          4.6507571757        1.4102293978       -1.3810776707
 H          3.6674016829        1.8524013539       -1.4186393986
 H          5.2919838744        2.0985041387       -3.2994263352
 H          7.5250959245        1.0666994297       -3.1162234250
 H          8.1469852767       -0.2005234953       -1.0931924977
 H          6.4934348924       -0.4253730236        0.7709198474
 H          2.9977467173       -0.9459455987       -0.4593071109
 H          2.3657902510       -0.5506827291        3.0738464443
 H          0.1525745488       -1.0490030898        4.0712097219
 H         -1.6683619640       -1.9293849243        2.6558748248
 C         -1.6397931602       -2.4610921849        0.0345026592
 H         -2.2346491488       -3.1559110480        0.6485679240
 C         -1.1944353350       -3.2442762405       -1.1914576321
 C         -2.1702471986       -3.5481450490       -2.2881628765
 C         -1.0163577736       -2.6285386829       -2.5451510100
 H         -0.2064126410       -2.9881915127       -3.1633140022
 H         -1.2110598641       -1.5735632107       -2.6523218226
 H         -2.1576324926       -4.5317089137       -2.7328489960
 H         -3.1581231068       -3.1186954365       -2.2034751288
 H         -0.5043490631       -4.0395759588       -0.9257376840
 O         -0.9152984922        0.2073389257       -1.0172868817
