  62
        -98.93662609
 C          1.9845538902        0.3641465100       -0.1912210898
 C          2.7182853904       -0.7856409299        0.1854663503
 C          4.1070393504       -0.5615198796        0.6326107901
 C          4.5913318702        0.6904239204        0.6809377800
 C          5.9815422202        1.1227550406        1.0563795698
 C          6.8661950601        1.2530990206       -0.1952078403
 C          7.5616372902       -0.0362165793       -0.6308905303
 H          8.0409677301        0.1624885607       -1.5923148403
 H          8.3508542803       -0.2771239091        0.0844663297
 C          6.6478721303       -1.2554627694       -0.7794748801
 H          5.7236925603       -0.9636472996       -1.2816567200
 H          7.1534402704       -1.9751006394       -1.4264111001
 C          6.3243328506       -1.9334534894        0.5601195700
 H          6.9947603206       -1.5446052692        1.3263685599
 H          6.5309938807       -3.0028989293        0.4824394801
 C          4.8683571806       -1.7973401095        1.0294530801
 H          4.2783851707       -2.6264327996        0.6266442403
 H          4.8345693007       -1.8914846594        2.1199832602
 H          6.2404702700        1.6277664605       -1.0095148903
 H          7.6355988200        2.0039296908       -0.0038625904
 H          5.8867454701        2.1073406807        1.5191320997
 H          6.4176470304        0.4372693307        1.7769133998
 O          3.8482459101        1.7740079503        0.3232950099
 C          2.5493079800        1.6415266901       -0.1240101899
 O          2.0031696399        2.7205600700       -0.4334179700
 H         -1.7305736800        1.7211824695       -0.4756948895
 C         -1.6065483398        1.0104456496        0.3271629805
 C         -0.4747125597        0.2093419198        0.3852123805
 C         -0.3518103395       -0.6952328601        1.4342815205
 C         -1.3304720194       -0.7781613202        2.4080201206
 C         -2.4652439395        0.0106267997        2.3371801007
 C         -2.6072335897        0.9032125996        1.2826769506
 N         -3.7703930698        1.6896131194        1.1412627907
 S         -4.6861832599        1.3993469492       -0.2340702192
 O         -3.9435126601        1.7889343892       -1.4040320993
 O         -5.9401266400        2.0821692390       -0.0081544992
 C         -4.9380897997       -0.3672294609       -0.2112209291
 C         -6.0680918496       -0.8696871909        0.4042986011
 C         -6.2221083194       -2.2427812610        0.5066940012
 C         -5.2409016693       -3.0858407109        0.0071497212
 C         -4.1113726295       -2.5655442108       -0.6055365090
 C         -3.9545993397       -1.1930925808       -0.7188379091
 H         -3.0884557398       -0.7583442107       -1.1898899492
 H         -3.3455502594       -3.2196758507       -0.9905750490
 H         -5.3560132692       -4.1546882309        0.0947735913
 H         -7.1010967193       -2.6504620810        0.9794601613
 H         -6.8053789296       -0.1775004210        0.7780179811
 H         -4.3724393098        1.6685330394        1.9531972607
 H         -3.2352796794       -0.0638760504        3.0902863808
 H         -1.2148957492       -1.4761600301        3.2230616707
 H          0.5130884006       -1.3378522400        1.4768516105
 C          0.5584000702        0.3154901598       -0.7118167996
 H          0.3976216100        1.2772864897       -1.2185993497
 C          0.3352848702       -0.7940256903       -1.7249274895
 C         -0.7458668799       -0.6426263505       -2.7506969194
 C          0.6942431300       -0.5547852104       -3.1588713496
 H          1.1223248801       -1.3671632204       -3.7265347395
 H          1.0920465399        0.4160355796       -3.4184273297
 H         -1.3045620398       -1.5188476106       -3.0438942293
 H         -1.3284934700        0.2680185394       -2.7457265094
 H          0.5184092604       -1.7811254003       -1.3208082195
 O          2.2592852705       -1.9586239499        0.1614604104
