  62
        -98.94064852
 C         -1.5892217036       -0.5169176375        0.7901786437
 C         -2.9459022619       -0.6388808057        1.1898212225
 C         -3.9363994536       -0.7280175750        0.1119808173
 C         -3.5323636655       -0.6742285753       -1.1696607290
 C         -4.4170623167       -0.7722321392       -2.3828123266
 C         -5.0686887666        0.5564095782       -2.7897151349
 C         -6.1902338819        1.0402356891       -1.8695613121
 H         -6.6992035141        1.8558985887       -2.3870188511
 H         -6.9167886788        0.2387927924       -1.7319509269
 C         -5.7126374736        1.5459599114       -0.5010091519
 H         -4.6396259709        1.7486556983       -0.5418213889
 H         -6.2070527025        2.4922313717       -0.2698852220
 C         -5.9934566773        0.5924332976        0.6604735558
 H         -5.5805716708        1.0316968418        1.5721549742
 H         -7.0722075012        0.4879479851        0.7959245260
 C         -5.3846151931       -0.8055109181        0.4907841529
 H         -5.9429473159       -1.3711632719       -0.2548508677
 H         -5.4511893084       -1.3263036820        1.4491464997
 H         -4.2914425103        1.3219610432       -2.8517077045
 H         -5.4825799647        0.4224185584       -3.7918803291
 H         -5.1910047193       -1.5212894122       -2.2124219059
 H         -3.7812332720       -1.1086767256       -3.2046822081
 O         -2.2259871838       -0.5394937897       -1.5154651458
 C         -1.2234138833       -0.4361851463       -0.5548196867
 O         -0.0864085155       -0.2927772441       -1.0380039964
 O         -3.3124339097       -0.6738450823        2.3944288262
 C         -0.5506729005       -0.3961849832        1.8918633262
 C          0.2921354209        0.8358947786        1.6839611716
 C         -0.2629089146        2.0772156712        1.9842786623
 C          0.4701068212        3.2374219315        1.8298960573
 C          1.7715098714        3.1799057549        1.3639049632
 C          2.3309221829        1.9494685346        1.0443225251
 C          1.5947558404        0.7835330131        1.2103683850
 H          2.0369531334       -0.1645568559        0.9522651629
 N          3.6602580380        1.8653555798        0.5809319890
 S          3.9110284054        1.2780563084       -0.9782512880
 O          5.2191805497        1.7916142995       -1.3370181039
 O          2.8312717569        1.6490203493       -1.8621199003
 C          4.0360203079       -0.4857769271       -0.7965308775
 C          5.1568386794       -0.9850886052       -0.1611476372
 C          5.3031745646       -2.3571689485       -0.0425313816
 C          4.3363241328       -3.2007972860       -0.5695840308
 C          3.2182401527       -2.6814655708       -1.2036436452
 C          3.0583049637       -1.3083375287       -1.3173792519
 H          2.1861651455       -0.8661229597       -1.7729185986
 H          2.4634683931       -3.3372825200       -1.6081825884
 H          4.4522711475       -4.2701153680       -0.4849760246
 H          6.1688715847       -2.7650973312        0.4539063042
 H          5.8910665588       -0.2924657687        0.2152905028
 H          4.1682842962        2.7346696822        0.6782913031
 H          2.3512491467        4.0829741273        1.2405536334
 H          0.0279135809        4.1922432054        2.0717993642
 H         -1.2819860259        2.1192800889        2.3444795551
 H         -1.1511125971       -0.2348041541        2.8027775723
 C          0.2724162319       -1.6496623166        2.1441814593
 C         -0.3800464260       -2.9990467801        2.1054429058
 C          0.6420704103       -2.6297983204        1.0746688965
 H          1.6162472802       -3.0930458607        1.1290361988
 H          0.3122267533       -2.4281565467        0.0685076039
 H         -0.1154045768       -3.7234649447        2.8605907162
 H         -1.4170364561       -3.0383199486        1.8045506810
 H          1.0063238703       -1.4914061406        2.9286628774
