  62
        -98.94478435
 C         -2.0324911064       -1.3284963368        0.0152038907
 C         -2.6223494989       -0.6651746274        1.1173293121
 C         -3.8238172974        0.1273304895        0.8255792205
 C         -4.2811879894        0.1855469017       -0.4387946164
 C         -5.4666935649        0.9907304520       -0.8846988122
 C         -5.0471208501        2.3971028149       -1.3343632964
 C         -4.1371125096        3.1170530947       -0.3390804400
 H         -3.1819985978        2.5890246388       -0.2839564289
 H         -3.9301480634        4.1094066398       -0.7458137444
 C         -4.7239876524        3.2549438952        1.0728671506
 H         -4.5506816658        4.2739058850        1.4255080340
 H         -5.8033552893        3.1026272059        1.0414398248
 C         -4.1099602198        2.3139467190        2.1111566969
 H         -4.4344767585        2.6435574810        3.1017615874
 H         -3.0203864734        2.3974834733        2.0807480778
 C         -4.4856438154        0.8326874923        1.9761024863
 H         -4.1427571009        0.3199791394        2.8796262506
 H         -5.5712332755        0.7333551131        1.9163402310
 H         -5.9482010679        2.9901341187       -1.5007760020
 H         -4.5149322455        2.3128816815       -2.2847656580
 H         -6.1823534693        1.0574411181       -0.0675468173
 H         -5.9350849004        0.4755326191       -1.7249708150
 O         -3.6792287570       -0.4516355777       -1.4745091925
 C         -2.5337961144       -1.2116236176       -1.2815629893
 O         -2.0748780161       -1.7193176520       -2.3211112754
 O         -2.1620097456       -0.7291915062        2.2900171321
 C         -0.7875367645       -2.1667960196        0.2471669450
 C          0.3821886057       -1.5530687588       -0.4823935918
 C          1.2001160148       -2.2536182714       -1.3578562844
 C          2.2468969982       -1.6147766194       -2.0016619826
 C          2.5077672283       -0.2759669592       -1.7792771548
 C          1.7083405983        0.4293726772       -0.8873053365
 C          0.6612281443       -0.2117785984       -0.2448738420
 H          0.0372297521        0.3391353861        0.4480783019
 N          1.9788664310        1.7848600067       -0.6353194272
 S          3.5739047067        2.2337900931       -0.3988755313
 O          3.5152480475        3.4058927556        0.4461914233
 O          4.2220260850        2.4112834601       -1.6744227393
 C          4.3215729501        0.8680054362        0.4728507923
 C          3.7928534620        0.5101156710        1.6973320732
 C          4.3377591680       -0.5694975466        2.3728236607
 C          5.3970202711       -1.2694703557        1.8152931071
 C          5.9207890771       -0.8937443678        0.5882953204
 C          5.3781723560        0.1841977687       -0.0928898032
 H          5.7518882110        0.5081745503       -1.0505092380
 H          6.7457313779       -1.4384516175        0.1583458360
 H          5.8157621655       -2.1121384797        2.3423360130
 H          3.9312505379       -0.8621937654        3.3276797028
 H          2.9714296672        1.0764202449        2.1068474973
 H          1.3724563869        2.2048669548        0.0531589256
 H          3.3073505518        0.2381101861       -2.2874125499
 H          2.8666682043       -2.1679243364       -2.6904847842
 H          1.0120068955       -3.2971213915       -1.5473143924
 H         -0.5880890024       -2.0943482346        1.3266687542
 C         -1.0392849620       -3.6170235001       -0.1039916783
 C         -0.2428785922       -4.6988292416        0.5604486022
 C         -1.6860953988       -4.5062201195        0.9140024703
 H         -2.4046973651       -5.2378571828        0.5763159344
 H         -1.9264822630       -4.0709769197        1.8731366185
 H          0.0297339347       -5.5681195534       -0.0184483427
 H          0.4998267680       -4.3991303653        1.2839661157
 H         -1.3279641577       -3.7526748799       -1.1398649175
