  62
        -98.93464943
 C         -2.3030475479       -0.7818055277       -0.1536904091
 C         -3.5459656151       -1.0879610919        0.4468032503
 C         -4.7296120958       -0.4011203723       -0.0973944833
 C         -4.5780305845        0.4712667205       -1.1115509237
 C         -5.5976617742        1.2781899124       -1.8880312799
 C         -7.0084074224        1.4881699382       -1.3431280512
 C         -7.0851825813        2.3239699493       -0.0664036765
 H         -8.1244277088        2.3370697523        0.2694068216
 H         -6.7992082245        3.3515176097       -0.3046397396
 C         -6.1981787932        1.8534031466        1.0837058935
 H         -6.3659934042        2.5241416615        1.9307859927
 H         -5.1478322238        1.9510063202        0.8010165536
 C         -6.4525028026        0.4256484405        1.5642334870
 H         -7.5102134829        0.3010651589        1.8036250449
 H         -5.8819812061        0.2834097789        2.4859614751
 C         -6.0347229792       -0.6883596191        0.5872804071
 H         -6.8143607116       -0.8886528928       -0.1437002438
 H         -5.8829273522       -1.6046733834        1.1649464929
 H         -7.5045367590        0.5327348719       -1.2008128879
 H         -7.5638540463        2.0208375316       -2.1198791879
 H         -5.6745030275        0.7960760135       -2.8689250191
 H         -5.1317915869        2.2534811124       -2.0603861068
 O         -3.3555511984        0.7305637203       -1.6622524514
 C         -2.1949005693        0.1322616226       -1.1996560300
 O         -1.1622769479        0.4938886670       -1.7948371570
 O         -3.6656217743       -1.9042913956        1.4000368492
 C         -1.0463246378       -1.4477432028        0.3771793023
 C         -0.1085941885       -0.3955301784        0.9152115723
 C         -0.5582738423        0.4311366863        1.9429763488
 C          0.2551803906        1.4181583310        2.4628578555
 C          1.5377646271        1.5979734532        1.9744655770
 C          1.9939404924        0.7833763309        0.9453348429
 C          1.1738061883       -0.2099851774        0.4262740291
 H          1.5543079976       -0.8269084276       -0.3699529300
 N          3.2767682171        0.9711121267        0.4071832852
 S          4.1366239477       -0.3588641131       -0.1706311356
 O          3.6826051962       -0.6814019540       -1.4996429264
 O          4.0987212114       -1.4334077749        0.7964013088
 C          5.7742434983        0.3431776619       -0.2516672001
 C          6.0808465425        1.1755764969       -1.3118698072
 C          7.3402302954        1.7506886147       -1.3695246804
 C          8.2669526847        1.4859781217       -0.3717622762
 C          7.9457320374        0.6469228403        0.6844589343
 C          6.6871385099        0.0694442671        0.7490529817
 H          6.3949526354       -0.5942835616        1.5468011608
 H          8.6694959655        0.4406039682        1.4563652113
 H          9.2466563771        1.9344346821       -0.4198207379
 H          7.5941997829        2.4013025640       -2.1907905422
 H          5.3313171853        1.3446812444       -2.0675842533
 H          3.8580598669        1.5731790662        0.9740122943
 H          2.1753926740        2.3690912957        2.3794002501
 H         -0.1078213270        2.0501778804        3.2594526469
 H         -1.5597359788        0.2863502582        2.3254420824
 H         -1.3796092257       -2.0706554771        1.2206774283
 C         -0.4219278178       -2.3437452707       -0.6700171848
 C          0.4912418999       -3.4554171062       -0.2506276912
 C         -0.8741492604       -3.7673617257       -0.7835360790
 H         -0.9571324681       -4.2045625172       -1.7671739497
 H         -1.6286996995       -4.1056886696       -0.0884991427
 H          1.3531804011       -3.6718416781       -0.8642641879
 H          0.6685563285       -3.5821386622        0.8069346990
 H         -0.1913693477       -1.8182931885       -1.5906080680
