  62
        -98.93618412
 C         -2.2389298669       -0.7579699748        0.0494414612
 C         -3.1669376871       -0.3606320787        1.0491147881
 C         -4.1539137393        0.6594948844        0.6699973613
 C         -4.1183470769        1.1690537876       -0.5742371851
 C         -5.0987066076        2.1537647937       -1.1449841583
 C         -6.4085369887        1.4325807885       -1.5224983173
 C         -7.6226718957        1.8555038155       -0.6951297813
 H         -7.9639214521        2.8336560391       -1.0405523953
 H         -8.4211303445        1.1382041662       -0.8967406383
 C         -7.4022625629        1.9441760341        0.8180617630
 H         -6.8994208715        2.8812623379        1.0615005688
 H         -8.3904743592        1.9923432018        1.2803820999
 C         -6.6182821241        0.7875038967        1.4514950737
 H         -6.6947016991       -0.1105461870        0.8380646105
 H         -7.0766275711        0.5540442137        2.4146254200
 C         -5.1336678338        1.0933147287        1.7249413583
 H         -5.0107059787        2.1622111411        1.9197531836
 H         -4.8269897531        0.5574825469        2.6279539907
 H         -6.6327963872        1.6128253574       -2.5749608643
 H         -6.2501622297        0.3573418204       -1.4156059945
 H         -5.2905073966        2.9431238024       -0.4216170034
 H         -4.6389920764        2.5942942908       -2.0299246919
 O         -3.2082151327        0.7764116087       -1.5004691020
 C         -2.2528841447       -0.1908644929       -1.2241901381
 O         -1.5042583573       -0.4310100679       -2.1941429793
 H          0.4637551309       -0.5234863087       -1.2058291997
 C          0.8728064964       -0.6370575630       -0.2126311890
 C          0.1178439974       -1.2698997251        0.7648222329
 C          0.6565772985       -1.3982298994        2.0397156841
 C          1.9183747628       -0.9063999248        2.3248367073
 C          2.6661608261       -0.2744309814        1.3476980556
 C          2.1350892370       -0.1365301836        0.0719143626
 N          2.8788561234        0.5244976432       -0.9239524596
 S          4.4214353481       -0.0572621861       -1.2503926690
 O          4.7078017157        0.3543200160       -2.6073226775
 O          4.5225898589       -1.4718056913       -0.9730242958
 C          5.4684051382        0.8561473877       -0.1364180102
 C          6.2801387158        0.1819198622        0.7547574120
 C          7.0946322735        0.9138377997        1.6049249312
 C          7.0835849040        2.2990766911        1.5483248045
 C          6.2641885906        2.9609992436        0.6457961079
 C          5.4485383943        2.2353499681       -0.2076231753
 H          4.8003390133        2.7097462322       -0.9256084324
 H          6.2584140023        4.0383431537        0.6046230857
 H          7.7174382548        2.8666103929        2.2112529339
 H          7.7325494535        0.4012650562        2.3068820609
 H          6.2508484163       -0.8959270020        0.7659564311
 H          2.3628835708        0.6446273952       -1.7844856299
 H          3.6486046974        0.1127054842        1.5636014020
 H          2.3237537483       -1.0146410884        3.3191832321
 H          0.0741340906       -1.8802518343        2.8113497841
 C         -1.2442489440       -1.8376998329        0.4420866872
 H         -1.6489871351       -2.2716984327        1.3662428893
 C         -1.1244782162       -2.9423995693       -0.5908032764
 C         -0.5991647246       -4.2794907293       -0.1659994062
 C         -2.0470106670       -4.1202951451       -0.5191446558
 H         -2.4057381701       -4.5497423851       -1.4425172580
 H         -2.7717599929       -4.1390995562        0.2817511164
 H          0.0422727535       -4.8194631198       -0.8455869420
 H         -0.3423365099       -4.4073936487        0.8746078325
 H         -0.8517787675       -2.5849306820       -1.5754716301
 O         -3.1710845534       -0.8482570558        2.2107623491
