  62
        -98.93966025
 C         -2.6023285509       -1.3496508775        0.2627520303
 C         -2.8441960674       -0.4889471566       -0.8362907429
 C         -3.9246022181        0.4954511906       -0.6558966205
 C         -4.6047918656        0.5342797038        0.5033310035
 C         -5.6866657837        1.5198963089        0.8350132101
 C         -5.1124708730        2.7676666053        1.5204200708
 C         -3.9117162792        3.3737743064        0.7940416657
 H         -3.6113949391        4.2648865633        1.3493476327
 H         -3.0761071249        2.6712138852        0.8384723032
 C         -4.1798013689        3.7502123134       -0.6698694115
 H         -5.2541426854        3.8155106328       -0.8453295040
 H         -3.7596811296        4.7401441082       -0.8599523887
 C         -3.5573677754        2.7990681341       -1.6937816608
 H         -2.4974430441        2.6588221107       -1.4658306060
 H         -3.6190919897        3.2710217473       -2.6781500084
 C         -4.2136990985        1.4171975813       -1.8077560003
 H         -5.2903719535        1.5322845154       -1.9479199003
 H         -3.8022448668        0.9270301390       -2.6952232458
 H         -5.9057557915        3.5130348765        1.6002984954
 H         -4.7989882205        2.4944743014        2.5305268561
 H         -6.2071771576        1.8010005190       -0.0784589993
 H         -6.3939131256        1.0375682605        1.5117587725
 O         -4.3451666553       -0.3059070492        1.5367190207
 C         -3.3461259786       -1.2580523840        1.4440382681
 O         -3.2194195544       -1.9642516724        2.4638253906
 H         -0.2470233331       -0.3297473857       -0.8220661093
 C          0.3389397434       -0.8109053449       -0.0524494959
 C         -0.1832779970       -1.9151947089        0.6071008929
 C          0.5913304870       -2.5349018132        1.5803608451
 C          1.8569502747       -2.0612913620        1.8800817548
 C          2.3744140159       -0.9629317781        1.2171510968
 C          1.6074952565       -0.3349885946        0.2443934976
 N          2.1270238636        0.7845904462       -0.4351514163
 S          3.5786155188        0.5536983755       -1.2544886692
 O          3.5962679335        1.5577311784       -2.2954031051
 O          3.7276178784       -0.8188907206       -1.6806961312
 C          4.8207136363        0.9539851513       -0.0433989067
 C          4.7789515023        2.2035829864        0.5436450727
 C          5.7449376068        2.5348628870        1.4802524538
 C          6.7324047203        1.6178917992        1.8092257251
 C          6.7623063991        0.3687228463        1.2083928797
 C          5.7979860856        0.0303357174        0.2716203025
 H          5.7770104512       -0.9304806658       -0.2173416398
 H          7.5308822591       -0.3424267847        1.4652818466
 H          7.4831860077        1.8787543833        2.5383461486
 H          5.7249024063        3.5050669179        1.9500073917
 H          3.9971900643        2.8870418428        0.2568514001
 H          1.4531116619        1.2136736795       -1.0542919538
 H          3.3599318638       -0.5906050396        1.4447753937
 H          2.4473576083       -2.5526485982        2.6381709450
 H          0.1911585118       -3.3887286052        2.1074900872
 C         -1.5477034301       -2.4451823180        0.2486364457
 H         -1.8513764156       -3.1408451305        1.0464935800
 C         -1.5434717898       -3.2337935473       -1.0564107487
 C         -0.4254611893       -3.2038857807       -2.0510827621
 C         -0.6435705027       -4.4240147571       -1.2107109325
 H         -1.0361281365       -5.3146106931       -1.6774246066
 H          0.0667757681       -4.6140750547       -0.4201486427
 H          0.4382332696       -2.5896640929       -1.8462202040
 H         -0.6889685879       -3.2366272523       -3.0975843771
 H         -2.5428281563       -3.3274947404       -1.4699965677
 O         -2.2037305496       -0.5187167974       -1.9203015824
