  62
        -98.93439620
 C         -2.0224932176       -0.3620831907       -0.1548561633
 C         -3.1111312167       -1.2709494868       -0.1511805738
 C         -4.3516055085       -0.7946637822        0.4676458912
 C         -4.3904816390        0.4320379347        1.0183582143
 C         -5.5717677775        1.0537630069        1.7127145376
 C         -6.5767647958        1.7174124541        0.7612211556
 C         -7.4268431690        0.7508674221       -0.0644509321
 H         -7.8924086786        0.0210903620        0.5986277255
 H         -8.2285970141        1.3369878022       -0.5180538988
 C         -6.6585009279        0.0228159890       -1.1762933105
 H         -7.2383955492        0.0559223272       -2.1014539816
 H         -5.7178180887        0.5435461722       -1.3702366260
 C         -6.3585644713       -1.4470303192       -0.8818481636
 H         -7.2945800216       -2.0061138437       -0.8166285737
 H         -5.7814426192       -1.8525322425       -1.7167700000
 C         -5.5579572178       -1.6821796847        0.4056771793
 H         -6.1921866407       -1.5234960789        1.2774959616
 H         -5.2093243692       -2.7177142115        0.4085907635
 H         -7.2474212099        2.3280099462        1.3702819900
 H         -6.0331942840        2.3882858354        0.0918431687
 H         -6.0814311227        0.3007260972        2.3144552804
 H         -5.1712853698        1.8202331183        2.3796969015
 O         -3.3166306366        1.2633442877        1.0232187272
 C         -2.1150423117        0.9065331453        0.4194643999
 O         -1.2448060993        1.7926647998        0.4821800466
 O         -3.0442684794       -2.4310817022       -0.6391408391
 C         -0.7304409734       -0.8296973079       -0.8161248407
 C          0.4147698485       -0.6641281079        0.1475950612
 C          0.5479285841       -1.6507368613        1.1269881272
 C          1.5214888069       -1.5736599793        2.1024326049
 C          2.4160305595       -0.5175659569        2.1094037109
 C          2.2978190817        0.4689679775        1.1410907943
 C          1.2971576991        0.4046664181        0.1794940101
 H          1.2277569024        1.2183513190       -0.5181542238
 N          3.2106079294        1.5469270751        1.0895686883
 S          4.2449697957        1.5533749318       -0.2262732144
 O          5.2046436440        2.6023051006        0.0358799218
 O          3.4853828547        1.6587420145       -1.4433833989
 C          5.0501189651       -0.0380402017       -0.1464639250
 C          4.3986192606       -1.1423692309       -0.6595694404
 C          4.9856748072       -2.3900608747       -0.5201734533
 C          6.2061484704       -2.5119131117        0.1263637722
 C          6.8487667528       -1.3932197710        0.6347523929
 C          6.2638162103       -0.1439167972        0.5041686641
 H          6.7274475738        0.7532588495        0.8817569710
 H          7.7990979916       -1.4906243495        1.1344888864
 H          6.6585718044       -3.4851435540        0.2332235272
 H          4.4844605601       -3.2596198302       -0.9138750410
 H          3.4519056075       -1.0109629708       -1.1585647326
 H          3.7524818374        1.6563151980        1.9357420332
 H          3.1894301303       -0.4524105283        2.8601862037
 H          1.5936747153       -2.3450264984        2.8537337664
 H         -0.1446192656       -2.4813006049        1.1213411626
 H         -0.8787963490       -1.9152399413       -0.9349299619
 C         -0.6428718959       -0.2882196488       -2.2374968453
 C         -0.4466344432        1.1483239388       -2.6148577615
 C          0.6050385394        0.1335346698       -2.9523028914
 H          0.7123432316       -0.1565324337       -3.9875516619
 H          1.5401469823        0.1784091140       -2.4175124864
 H         -1.0547407333        1.5468212994       -3.4152587888
 H         -0.2576386860        1.8634706601       -1.8301158739
 H         -1.3676639203       -0.8144543336       -2.8557848357
