  62
        -98.94368590
 C         -1.6773301302       -1.1513122988       -0.3146930890
 C         -0.6556433066       -1.6793229834       -1.1341882460
 C          0.2527670217       -2.6581199652       -0.5115649769
 C          0.1091751569       -2.9518037628        0.7943135294
 C          0.8583748909       -3.9243540950        1.6810791162
 C          2.2117631084       -4.4893418396        1.2581211749
 C          3.3352588897       -3.4583073622        1.1788711582
 H          3.5277421425       -3.0684369390        2.1816960839
 H          4.2399610396       -3.9679834204        0.8386816180
 C          3.0634852360       -2.2682598840        0.2616550035
 H          2.2679860205       -1.6496599481        0.6854564565
 H          3.9642465117       -1.6472367190        0.2431767314
 C          2.7178922690       -2.6378240996       -1.1805180820
 H          3.4623857919       -3.3391448769       -1.5625617007
 H          2.7862033026       -1.7255815275       -1.7768500624
 C          1.3163502511       -3.2402740352       -1.3998794618
 H          1.3326681173       -4.3234481300       -1.2936966602
 H          1.0090807912       -3.0176582040       -2.4260142039
 H          2.1235535786       -5.0228313291        0.3162814415
 H          2.4908175803       -5.2251626034        2.0173495638
 H          0.9707437443       -3.4124955473        2.6424261682
 H          0.1716248600       -4.7609671390        1.8539255807
 O         -0.8758693446       -2.3931364605        1.5548154500
 C         -1.7795668727       -1.4839155402        1.0350746298
 O         -2.6170543527       -1.0651932671        1.8578080566
 O         -0.5066917505       -1.3536513554       -2.3440111020
 C         -2.6391757766       -0.1211345301       -0.8833127634
 C         -2.5171534396        1.1466006612       -0.0736398478
 C         -3.5921328636        1.8393576320        0.4649378881
 C         -3.3723767923        2.9426801556        1.2728881011
 C         -2.0900052476        3.3606848025        1.5761908462
 C         -1.0066415747        2.6848305325        1.0231218027
 C         -1.2337904450        1.6167021912        0.1743840276
 H         -0.3953081236        1.0937467808       -0.2553201392
 N          0.3096707631        3.0763969205        1.2990807303
 S          1.5892489137        1.9969688411        1.2455219384
 O          1.1934974550        0.6452277136        1.5623790426
 O          2.5819747391        2.5913182491        2.1170436238
 C          2.1565652137        2.1331785079       -0.4367728134
 C          1.9926993880        1.0887972849       -1.3224789178
 C          2.4168229806        1.2447538216       -2.6329099485
 C          3.0018135352        2.4359770052       -3.0319115446
 C          3.1697054334        3.4743901492       -2.1274972890
 C          2.7418310579        3.3253102667       -0.8187775607
 H          2.8582326122        4.1033297420       -0.0828695526
 H          3.6283327541        4.3984703765       -2.4403917324
 H          3.3286618269        2.5532385855       -4.0530374041
 H          2.2733913997        0.4352001897       -3.3314123820
 H          1.5330583683        0.1723195544       -0.9858551180
 H          0.4123794963        3.7574924522        2.0360670055
 H         -1.9239812393        4.1956791704        2.2397050574
 H         -4.2147221228        3.4697879465        1.6950869388
 H         -4.5988779613        1.5062557429        0.2729287811
 H         -2.2915971191        0.0777525320       -1.9078124953
 C         -4.0467310391       -0.6745670758       -0.9395915368
 C         -5.0188083478       -0.1636314154       -1.9597843474
 C         -4.4413219138       -1.5392547045       -2.0979251006
 H         -5.0791317579       -2.3901902757       -1.9114676901
 H         -3.6985546613       -1.7102955203       -2.8632300891
 H         -6.0576010971       -0.0712733003       -1.6809740239
 H         -4.6736663995        0.6008368849       -2.6390762589
 H         -4.4238774665       -0.9468316780        0.0400672217
