  62
        -98.94330026
 C          1.2089143460        0.6999963000        0.5898149348
 C          1.9182503425        0.5079834953       -0.6214101143
 C          2.9024476296       -0.5859708223       -0.6198543479
 C          3.0070758109       -1.3833824755        0.4576197153
 C          3.9991803451       -2.4990841275        0.6091440392
 C          5.2982429799       -2.0038209367        1.2605767220
 C          5.8678606554       -0.7385708505        0.6188572244
 H          5.1790457423        0.0909310535        0.7941964918
 H          6.7974221941       -0.5002010930        1.1400817297
 C          6.1415926652       -0.8583438978       -0.8868265964
 H          6.1810888368       -1.9098397564       -1.1735284786
 H          7.1218075717       -0.4268514292       -1.0998911833
 C          5.1312916953       -0.1294710690       -1.7748301302
 H          5.0203722833        0.9022956972       -1.4318773190
 H          5.5338276453       -0.0951929552       -2.7906187960
 C          3.7365056515       -0.7629352567       -1.8573632367
 H          3.1878835235       -0.2617004824       -2.6605305412
 H          3.8256620460       -1.8208035450       -2.1138535628
 H          6.0371873337       -2.8054328109        1.2080836943
 H          5.0985637441       -1.7941764865        2.3140536306
 H          3.5543893369       -3.2701588388        1.2408906528
 H          4.2095464303       -2.9255357043       -0.3699147980
 O          2.2354983206       -1.2326897261        1.5644322495
 C          1.3194077189       -0.1976276894        1.6542806826
 O          0.6627811921       -0.1876718632        2.7157085473
 H         -1.0017406238       -0.3564987148       -0.2293064471
 C         -1.3295130231        0.5245166430       -0.7598988669
 C         -0.7863593563        1.7591479324       -0.4293898656
 C         -1.1833221289        2.8727000629       -1.1572117298
 C         -2.0972159742        2.7404844407       -2.1891172776
 C         -2.6513550309        1.5121795373       -2.5000342303
 C         -2.2568794995        0.3908815318       -1.7783587146
 N         -2.7883367447       -0.8785394817       -2.0511239380
 S         -3.0095039715       -1.9622647359       -0.7994213027
 O         -1.7526279750       -2.5563016128       -0.4151505730
 O         -4.0109381794       -2.8810980982       -1.2986819723
 C         -3.6933203557       -0.9945908656        0.5354100179
 C         -2.9710423753       -0.7717172513        1.6895125116
 C         -3.5222247052        0.0245973797        2.6815318614
 C         -4.7798169439        0.5794169179        2.5052958645
 C         -5.4984692474        0.3375963252        1.3439894473
 C         -4.9512632400       -0.4539384271        0.3482234702
 H         -5.4832640089       -0.6724648905       -0.5633290073
 H         -6.4788619184        0.7657496408        1.2117268500
 H         -5.2011985259        1.2013164085        3.2791786248
 H         -2.9547040901        0.2087350928        3.5801125967
 H         -1.9908195545       -1.2091231432        1.8031104056
 H         -3.5473677127       -0.8960235328       -2.7156526133
 H         -3.3686566788        1.4151614721       -3.3002861565
 H         -2.3891229222        3.6113970197       -2.7560153014
 H         -0.7636279242        3.8395626753       -0.9337907089
 C          0.1697309093        1.7974812149        0.7383303667
 H         -0.4088263155        1.5107849793        1.6331716912
 C          0.7394044491        3.1798938353        1.0212453573
 C          2.1206653557        3.3510615623        1.5784048495
 C          1.8165135782        3.7944175815        0.1805248294
 H          1.7673837860        4.8551180277       -0.0187041213
 H          2.1984509445        3.2106707725       -0.6412807435
 H          2.2784715939        4.1023032844        2.3378908616
 H          2.7189814692        2.4611638114        1.7138501465
 H         -0.0160623209        3.8554568814        1.4102968030
 O          1.7501997821        1.2057483169       -1.6546004390
