  62
        -98.94445031
 C         -2.6404231980        1.3050001210       -0.1088924975
 C         -2.5853584048        0.2984764319        0.8855740508
 C         -3.5865008948       -0.7730221643        0.7694720442
 C         -4.4818922080       -0.7389691210       -0.2337316195
 C         -5.5187515732       -1.7910685838       -0.4977845196
 C         -4.9884450494       -2.8634940204       -1.4595603132
 C         -3.6158897496       -3.4157810020       -1.0740611986
 H         -3.3585518426       -4.1868991403       -1.8034571207
 H         -2.8692363298       -2.6235905398       -1.1702264366
 C         -3.5438538442       -4.0075695093        0.3405029040
 H         -3.0064423215       -4.9571537627        0.2955844359
 H         -4.5494563572       -4.2205336643        0.7052626515
 C         -2.8113210775       -3.1316008503        1.3589085911
 H         -1.8355874791       -2.8401542071        0.9592611743
 H         -2.6283018333       -3.7324779750        2.2541188903
 C         -3.5521555656       -1.8636740054        1.8027832018
 H         -4.5628771292       -2.1225067517        2.1249191622
 H         -3.0134739197       -1.4487333284        2.6598527957
 H         -5.7120041533       -3.6796359302       -1.4994769897
 H         -4.9123692881       -2.4264991763       -2.4577679264
 H         -5.8144421389       -2.2473160823        0.4448135566
 H         -6.3888439201       -1.3104312975       -0.9480372352
 O         -4.5117260990        0.2497488361       -1.1626538486
 C         -3.5867088939        1.2781765485       -1.1370711294
 O         -3.7111444259        2.1017118256       -2.0650376656
 H          0.3852965615        1.6095808078        1.5051827456
 C          0.6230072346        1.4928542648        0.4598924337
 C         -0.2910153760        1.8908777323       -0.5026844295
 C          0.0248260379        1.6942012936       -1.8442483745
 C          1.2281966414        1.1199219536       -2.2082219410
 C          2.1371360396        0.7197811037       -1.2435794687
 C          1.8224034827        0.8936655836        0.0968180854
 N          2.7307999750        0.4785631004        1.0854990959
 S          3.4166201096       -1.0470629901        0.9436459396
 O          2.5581874761       -1.9594627818        0.2238507844
 O          3.7767030059       -1.4274702511        2.2923142076
 C          4.9074718972       -0.7460935376        0.0154262681
 C          5.1704244535       -1.4775982969       -1.1260729869
 C          6.3405218826       -1.2294128626       -1.8270424748
 C          7.2228966140       -0.2599336118       -1.3759156894
 C          6.9459960356        0.4637810010       -0.2255325018
 C          5.7788215118        0.2196034361        0.4801774663
 H          5.5281298126        0.7572884922        1.3791919373
 H          7.6346567825        1.2167386930        0.1224959239
 H          8.1315404094       -0.0673954266       -1.9242194334
 H          6.5573462995       -1.7919058928       -2.7209982830
 H          4.4522214538       -2.2173205114       -1.4428917903
 H          2.3916866090        0.6277446572        2.0253618410
 H          3.0721920878        0.2607776274       -1.5200662225
 H          1.4616487639        0.9786314117       -3.2526602685
 H         -0.6949943146        1.9852765436       -2.5969040026
 C         -1.6429489982        2.4536840859       -0.1371189572
 H         -1.9683228521        3.1111893819       -0.9539583681
 C         -1.6469556069        3.2458979738        1.1536879846
 C         -0.9819400717        4.5881926282        1.1871491063
 C         -2.4760330612        4.4899942394        1.2450300373
 H         -2.9728777881        4.7093395113        2.1782571436
 H         -3.0426277525        4.7780945618        0.3715675739
 H         -0.5326410806        4.9425981667        0.2718400631
 H         -0.4508028805        4.8793960821        2.0803712742
 H         -1.5886837260        2.6278788697        2.0406247522
 O         -1.7554759819        0.2853835635        1.8335508360
