  62
        -98.93991471
 C         -1.3322537193       -1.1403918797       -0.1961732414
 C         -2.4381475694       -1.0860954009        0.6880103186
 C         -3.1839254098        0.1819400488        0.7353877897
 C         -2.7790807001        1.2099008197       -0.0299235893
 C         -3.3523101905        2.6029384196       -0.1141392380
 C         -4.8801114606        2.7446851291       -0.1180654980
 C         -5.6341310702        1.6092210595       -0.8252205391
 H         -4.9337327299        0.9833937502       -1.3808273396
 H         -6.3297081403        2.0403276699       -1.5476559387
 C         -6.4406833599        0.7369740284        0.1396864301
 H         -7.2143811897        0.2107293586       -0.4247177704
 H         -6.9461909202        1.3847216575        0.8593835407
 C         -5.6353733396       -0.3186819021        0.8962120692
 H         -5.3104157694       -1.1016059013        0.2055934485
 H         -6.2996650595       -0.7908165830        1.6241090787
 C         -4.3890637198        0.2012174176        1.6312704497
 H         -4.1685085296       -0.4912525131        2.4482092391
 H         -4.5636614902        1.1882023872        2.0524589006
 H         -5.1071509208        3.6928391995       -0.6085899071
 H         -5.2427120506        2.8281470080        0.9054177021
 H         -2.9441232607        3.1892879489        0.7143585325
 H         -2.9476594006        3.0199438305       -1.0394046276
 O         -1.7031146500        1.1172076508       -0.8592125293
 C         -0.9507502496       -0.0404920189       -0.9642302904
 O         -0.0020332796        0.0470527121       -1.7661900803
 H          1.8263169008       -1.5495107677       -1.3456831117
 C          1.8898278808       -1.6640483386       -0.2755005818
 C          0.7975015310       -2.1397747296        0.4342571978
 C          0.8999683409       -2.2513251009        1.8178472977
 C          2.0651460608       -1.8954032811        2.4720180480
 C          3.1463734007       -1.4010383601        1.7625212185
 C          3.0465576107       -1.2734998889        0.3837484487
 N          4.1244616105       -0.7203508179       -0.3438523708
 S          4.4918950400        0.8760789819        0.0102756307
 O          5.3794389699        1.3102147332       -1.0448036489
 O          5.0208357499        0.9407539509        1.3499421008
 C          2.9529014297        1.7741927615       -0.0741650285
 C          2.1198686597        1.7899625002        1.0263526314
 C          0.9143602295        2.4666939399        0.9415813820
 C          0.5664263193        3.1162725209       -0.2319475474
 C          1.4109817494        3.0852331822       -1.3295456674
 C          2.6134334196        2.4029907625       -1.2543771580
 H          3.2987517796        2.3560901435       -2.0856507480
 H          1.1303984093        3.5809551429       -2.2449368970
 H         -0.3729361608        3.6424023407       -0.2942833570
 H          0.2474116694        2.4781335689        1.7897566720
 H          2.4250909898        1.2817760195        1.9266919610
 H          3.9981986206       -0.8060185570       -1.3434768709
 H          4.0518509006       -1.0878149503        2.2565547189
 H          2.1314011108       -1.9947401021        3.5449974280
 H          0.0456878310       -2.6057748317        2.3772896373
 C         -0.5201614289       -2.4253188394       -0.2402100226
 H         -1.0748722487       -3.1438165302        0.3773900068
 C         -0.3858683287       -2.9860491081       -1.6399137631
 C          0.1036814718       -4.3912274678       -1.8190296143
 C         -1.3305692483       -4.0561823980       -2.0946428141
 H         -1.6698125083       -4.0415827271       -3.1196540141
 H         -2.0784724883       -4.3955762789       -1.3930550244
 H          0.3304151919       -4.9563442585       -0.9276001949
 H          0.7509564519       -4.6104279068       -2.6544157445
 H         -0.0885951289       -2.2490579273       -2.3753615224
 O         -2.7836294991       -2.0546959217        1.4153997777
