  62
        -98.93745056
 C         -0.9737270943       -1.5354435145        0.5804766780
 C         -1.6513560020       -1.1232956929       -0.5893541071
 C         -2.7008758005       -0.0968049883       -0.4145917966
 C         -2.9091513010        0.4260319038        0.8063916177
 C         -3.9476810686        1.4300013740        1.2391939831
 C         -5.3733208985        1.1936951094        0.7155430176
 C         -5.8221575538        2.2343781063       -0.3116199432
 H         -6.9137364253        2.2730394530       -0.3159259055
 H         -5.4642444176        3.2158008109        0.0065060853
 C         -5.3646215748        1.9686932332       -1.7448965238
 H         -5.6264071637        2.8450606641       -2.3425654811
 H         -5.9230366107        1.1221359277       -2.1504373075
 C         -3.8700478709        1.6878859434       -1.9162279165
 H         -3.2836260942        2.3499599588       -1.2816980447
 H         -3.6062179896        1.9225727131       -2.9498238425
 C         -3.4827060258        0.2244315551       -1.6597259307
 H         -4.3783316145       -0.4042383648       -1.6794729728
 H         -2.8518250313       -0.1361065182       -2.4788100659
 H         -5.4531798994        0.1913678435        0.2971576164
 H         -6.0551345823        1.2433288346        1.5660244523
 H         -3.9412982377        1.3915186082        2.3306606026
 H         -3.6188017662        2.4339084108        0.9626265097
 O         -2.1378391618        0.0881262512        1.8802707388
 C         -1.1717522885       -0.8931175691        1.8028524030
 O         -0.5608992515       -1.1027412626        2.8714023784
 O         -1.4173586815       -1.5947257108       -1.7320142289
 C          0.0404328971       -2.6687991311        0.5510976689
 C          1.2917842142       -2.1930871536       -0.1438757607
 C          1.6604012381       -2.5826491949       -1.4240478466
 C          2.8050246551       -2.0676922533       -2.0103191832
 C          3.6059114113       -1.1656166358       -1.3337423931
 C          3.2426365427       -0.7695696709       -0.0526336734
 C          2.0939143596       -1.2793049255        0.5307356250
 H          1.8031446745       -0.9626822319        1.5248914832
 N          4.0482465940        0.1685082127        0.6359054434
 S          3.9952325073        1.7274267028        0.0268422768
 O          4.4891149079        1.7124133936       -1.3253595413
 O          4.7232646577        2.5458482389        0.9685431691
 C          2.2661143923        2.1639792872        0.0480208595
 C          1.4410326168        1.6874608545       -0.9515656414
 C          0.0869635356        1.9742322712       -0.8934729884
 C         -0.4114917496        2.7305009984        0.1552749727
 C          0.4273981561        3.1976148306        1.1543147419
 C          1.7803868284        2.9054588310        1.1061523390
 H          2.4703616366        3.2482679753        1.8606060328
 H          0.0302297108        3.7808027118        1.9695832727
 H         -1.4646089866        2.9574620956        0.1943488755
 H         -0.5732503838        1.5975446772       -1.6585824103
 H          1.8621201336        1.1087550603       -1.7575918111
 H          3.8471524909        0.2026719330        1.6263320747
 H          4.4914822775       -0.7453890396       -1.7816951821
 H          3.0779850575       -2.3756093484       -3.0082589002
 H          1.0433726969       -3.2770815828       -1.9692156226
 H          0.2995209310       -2.8602919158        1.6017815523
 C         -0.5494511932       -3.9314557433       -0.0393983935
 C          0.1285929876       -5.2438171770        0.2105337120
 C         -1.1801392635       -4.9379515331        0.8732848492
 H         -2.0643121250       -5.4571770365        0.5350960786
 H         -1.1796109572       -4.7238630283        1.9324069155
 H          0.1443340779       -5.9765287660       -0.5816549611
 H          1.0196205264       -5.2363774981        0.8201589723
 H         -1.0180682061       -3.7759721138       -1.0027382806
