  62
        -98.93793002
 C         -0.6699242237       -2.2232782326       -0.6947740077
 C         -1.0984684267       -1.0981386537       -1.4389677701
 C         -2.4151924248       -0.5459665354       -1.0735858393
 C         -3.1242310434       -1.1133485943       -0.0836730635
 C         -4.3953422099       -0.5661208257        0.4994678556
 C         -4.0567448089        0.6019006921        1.4495011631
 C         -4.5868073390        1.9618291433        0.9941780576
 H         -5.6634618586        2.0043637280        1.1751072222
 H         -4.1133253638        2.7178664924        1.6247268839
 C         -4.3402471749        2.3152135839       -0.4758732832
 H         -5.0884630456        1.8243934673       -1.1008567600
 H         -4.5052296758        3.3901689651       -0.5764337069
 C         -2.9457965125        1.9780096676       -1.0196274810
 H         -2.2182839936        1.9357015856       -0.2072773361
 H         -2.6351832519        2.7865785835       -1.6854290795
 C         -2.8804066338        0.6678271815       -1.8294442975
 H         -3.8548848250        0.4662305448       -2.2826290979
 H         -2.1578671300        0.7921543317       -2.6416075649
 H         -4.4592612577        0.3926212799        2.4424081387
 H         -2.9702308095        0.6566607964        1.5577318714
 H         -5.0584002557       -0.2340646939       -0.2964581396
 H         -4.8811857120       -1.3740683274        1.0472653060
 O         -2.7054606970       -2.2252168118        0.5750059910
 C         -1.4660193419       -2.7802998785        0.3095024785
 O         -1.1880038783       -3.7711878986        1.0163960332
 H          0.9339561924       -0.2945393080        0.0178249943
 C          1.5156254327       -0.9541641789        0.6392779069
 C          1.5441002585       -2.3112630231        0.3486968779
 C          2.2921845607       -3.1537671422        1.1600149065
 C          2.9726771234       -2.6461111810        2.2535941243
 C          2.9037130871       -1.3010716711        2.5660526057
 C          2.1619638432       -0.4466284436        1.7546987389
 N          2.0778341436        0.9174917000        2.0469791306
 S          0.8561458302        1.9211842048        1.4980978586
 O          0.8409191587        3.0013921897        2.4631150797
 O         -0.3925914645        1.2204717124        1.3173800667
 C          1.5161640002        2.5400527628       -0.0349602954
 C          2.5848920991        3.4122501705        0.0622209281
 C          3.1636871086        3.9010030683       -1.0962627047
 C          2.6690499745        3.5091732190       -2.3320110375
 C          1.5947843526        2.6384987774       -2.4125622687
 C          1.0084840559        2.1478014910       -1.2552739407
 H          0.1789496251        1.4609319496       -1.3072418098
 H          1.2053499286        2.3222225859       -3.3669355734
 H          3.1219434532        3.8845285992       -3.2361715152
 H          3.9979180701        4.5811375944       -1.0344950282
 H          2.9307420991        3.6973770409        1.0419208943
 H          2.4393901141        1.1965050752        2.9456809437
 H          3.4090484610       -0.9124832010        3.4369987653
 H          3.5460214839       -3.3094393020        2.8834017696
 H          2.3138947757       -4.2128063894        0.9493614285
 C          0.7190448124       -2.8386291436       -0.8003142516
 H          0.5833966836       -3.9203783484       -0.6362716480
 C          1.3935701680       -2.6639347778       -2.1506063722
 C          2.4730288996       -1.6591064150       -2.4033593107
 C          2.8115563010       -3.1165841232       -2.3394006382
 H          3.0715314705       -3.6297256860       -3.2527288814
 H          3.3424870940       -3.4673335892       -1.4672209454
 H          2.4757846757       -1.1627042202       -3.3612008286
 H          2.7822687240       -1.0253322725       -1.5865056080
 H          0.7093723119       -2.8497722315       -2.9709457280
 O         -0.4339716766       -0.5532042449       -2.3576100363
