  62
        -98.93839374
 C         -1.7286383257       -1.1130764075        0.1875194696
 C         -1.9616774286        0.2191258707       -0.2253997863
 C         -3.2567279545        0.8140235384        0.1591273370
 C         -4.1322365547        0.0987281304        0.8882869970
 C         -5.4870041450        0.4597451135        1.4606948701
 C         -6.2441759055        1.6899478692        0.9667564896
 C         -6.7170917018        1.6117693968       -0.4843858163
 H         -7.5044389509        0.8568742570       -0.5534168009
 H         -7.1566623906        2.5752851670       -0.7517131398
 C         -5.6439828582        1.2534647848       -1.5094130003
 H         -5.2740251094        0.2446107442       -1.3154622833
 H         -6.1163570543        1.2384158823       -2.4954126679
 C         -4.4576124081        2.2131112621       -1.5773887805
 H         -3.8607967511        1.9355623670       -2.4502915497
 H         -4.8176761906        3.2325464816       -1.7292347018
 C         -3.5226460335        2.1998240169       -0.3553336190
 H         -2.5554053039        2.6045150627       -0.6670306430
 H         -3.9005884829        2.8376790406        0.4401656707
 H         -5.6526283079        2.5867667152        1.1262763926
 H         -7.1321544614        1.7814822742        1.5982924018
 H         -6.1138356895       -0.4262956398        1.3181854582
 H         -5.3358323628        0.5582918075        2.5415697537
 O         -3.8521939239       -1.1747622570        1.2910856213
 C         -2.6755332229       -1.8090093244        0.9450686885
 O         -2.5881869022       -2.9812418489        1.3617863465
 H          0.6292536060        0.5310208497        0.2694058689
 C          1.1396774357       -0.2420350024        0.8246018888
 C          0.6900337675       -1.5516049777        0.7354656169
 C          1.3643612616       -2.5332003182        1.4517058290
 C          2.4607343048       -2.2107874306        2.2334211939
 C          2.9051991790       -0.9032046956        2.3198169834
 C          2.2312084775        0.0841542537        1.6145765286
 N          2.6893210910        1.4222063295        1.6788892816
 S          4.1486998186        1.6735167980        0.8904070014
 O          5.1955916985        1.0201432628        1.6340422876
 O          4.2748594999        3.1043660923        0.7304420301
 C          3.9317003483        0.8813195991       -0.6922207253
 C          4.3039611082       -0.4390489351       -0.8440733766
 C          4.0472869377       -1.0707504705       -2.0499106071
 C          3.4226785779       -0.3761575787       -3.0741559704
 C          3.0509308152        0.9484243147       -2.9042612882
 C          3.3019459812        1.5842069835       -1.6995183676
 H          3.0296717964        2.6136649591       -1.5285006834
 H          2.5600094088        1.4842119296       -3.7009111901
 H          3.2245639710       -0.8680154151       -4.0138236786
 H          4.3298195847       -2.1025027170       -2.1835200324
 H          4.7883461840       -0.9421270255       -0.0234099303
 H          2.0091478614        2.0747703751        1.3122092047
 H          3.7664298789       -0.6336861710        2.9095382416
 H          2.9744623104       -2.9853742969        2.7821595953
 H          1.0189425416       -3.5552926829        1.3993574085
 C         -0.4745506850       -1.9009563612       -0.1588628980
 H         -0.7333620475       -2.9524813680        0.0230966761
 C         -0.0653268359       -1.7538004074       -1.6132085556
 C          0.6888819297       -2.8673457814       -2.2713539082
 C         -0.7366390397       -2.6009586015       -2.6497640360
 H         -0.9455374568       -2.1642867030       -3.6146677155
 H         -1.4939389204       -3.2945792891       -2.3131354070
 H          1.4632070885       -2.6144549051       -2.9777282920
 H          0.8985872740       -3.7467961578       -1.6818660315
 H          0.1902628725       -0.7385817719       -1.8868118574
 O         -1.1384524498        0.9155230597       -0.8793198495
