  62
        -98.93231204
 C          1.7597441007        0.0905827789        0.2062073917
 C          2.8711068562        0.9667817670        0.1882088930
 C          4.1253182234        0.4169147404       -0.3687284813
 C          4.1414344166       -0.8362130195       -0.8516644656
 C          5.3156470038       -1.5883796486       -1.4143147892
 C          5.9947083521       -2.4304539245       -0.3210076977
 C          7.0610146907       -1.6944530175        0.4894447959
 H          7.9394391733       -1.5308965266       -0.1384279088
 H          7.3613084693       -2.3543314021        1.3067232820
 C          6.6245541331       -0.3502084102        1.0781152070
 H          7.2961095190       -0.1137127581        1.9058655637
 H          5.6190995865       -0.4391174310        1.4936054911
 C          6.6696611456        0.7983423651        0.0592630127
 H          7.2216887620        0.4705186726       -0.8214863033
 H          7.2311563926        1.6339564633        0.4823594866
 C          5.3021355555        1.3545032133       -0.3657309510
 H          5.3934460735        1.8036256561       -1.3604107468
 H          5.0103507280        2.1616055858        0.3137904912
 H          6.4644693810       -3.2986400983       -0.7877019696
 H          5.2141723234       -2.8017168077        0.3480560190
 H          6.0211682855       -0.9087346551       -1.8827881734
 H          4.9170777888       -2.2625393883       -2.1752831283
 O          3.0407764465       -1.6379654647       -0.8393594851
 C          1.8411439414       -1.2054286698       -0.3104313067
 O          0.9278285190       -2.0544372090       -0.3494542813
 O          2.8458574578        2.1505989808        0.6114998052
 C          0.3994212040        0.4736157516        0.7630901757
 C         -0.4673486358        1.1296984338       -0.2803004570
 C          0.0146776539        2.1419741014       -1.1035616062
 C         -0.8155522292        2.7389080991       -2.0347462843
 C         -2.1414722686        2.3581094392       -2.1460029900
 C         -2.6327784150        1.3482211517       -1.3275723980
 C         -1.7881349624        0.7297678171       -0.4166338675
 H         -2.1678726988       -0.0708351604        0.1987798345
 N         -3.9684369144        0.9335146225       -1.4110693676
 S         -4.8011516374        0.5366346632       -0.0129287334
 O         -6.1946356906        0.7216177568       -0.3556495097
 O         -4.3171444697        1.2885308811        1.1204264174
 C         -4.4856794726       -1.2002885211        0.2098054309
 C         -3.9833121978       -1.6590782662        1.4110522442
 C         -3.7538911217       -3.0169413264        1.5669028379
 C         -4.0315630207       -3.8873052257        0.5244733563
 C         -4.5401685641       -3.4110054632       -0.6745170830
 C         -4.7714210750       -2.0548069839       -0.8364345580
 H         -5.1679250425       -1.6474416022       -1.7514368990
 H         -4.7535881737       -4.0923349707       -1.4823386209
 H         -3.8485631596       -4.9430541360        0.6479115768
 H         -3.3561207455       -3.3885852322        2.4976756551
 H         -3.7751269927       -0.9477028156        2.1953070363
 H         -4.5388215633        1.4548509278       -2.0605920685
 H         -2.7916464551        2.8375751261       -2.8620440829
 H         -0.4301474935        3.5215487042       -2.6709528942
 H          1.0398250953        2.4629453787       -0.9988360267
 H         -0.0801394068       -0.4828697983        1.0271337521
 C          0.4799522539        1.2968799658        2.0420528958
 C          0.1638314833        2.7570395130        2.1117069037
 C         -0.7757508546        1.7619315483        2.7199755317
 H         -0.8335711322        1.6972779087        3.7964030742
 H         -1.7186158853        1.5922839727        2.2189129685
 H          0.7707589938        3.3698212864        2.7606098990
 H         -0.1408075198        3.2570418587        1.2059333268
 H          1.2787897817        0.9507848036        2.6907606607
