  62
        -98.93950105
 C         -2.6351577262       -1.2112177808        0.2598460474
 C         -2.5147688493       -0.1695950686       -0.6935166460
 C         -3.7045159229        0.6810728084       -0.8651216940
 C         -4.8097274276        0.4339383326       -0.1406100868
 C         -6.0672413284        1.2516751843       -0.1830503729
 C         -6.0380911160        2.3689408116        0.8693248572
 C         -4.7495489295        3.1916383602        0.8620135895
 H         -4.8558235221        3.9678490586        1.6229813104
 H         -3.9168155110        2.5540626380        1.1681370876
 C         -4.4184082035        3.8417649960       -0.4885898949
 H         -4.1117793336        4.8750802706       -0.3133229472
 H         -5.3111645116        3.8707858016       -1.1144175471
 C         -3.2821498792        3.1649719173       -1.2576643630
 H         -2.4140729428        3.0481754834       -0.6037519396
 H         -2.9872773347        3.8247635374       -2.0779632360
 C         -3.6116282423        1.7967660480       -1.8676830565
 H         -4.5296544915        1.8659745878       -2.4548773158
 H         -2.7916971951        1.5279604184       -2.5401807747
 H         -6.1496228515        1.9165067700        1.8574829732
 H         -6.8927682852        3.0260287566        0.6985014181
 H         -6.9129664931        0.5931709697        0.0224134014
 H         -6.1842950064        1.6775394048       -1.1776368259
 O         -4.8880359324       -0.5747259943        0.7649408031
 C         -3.8032654858       -1.4014846557        1.0035435904
 O         -3.9987828152       -2.2559104768        1.8910319954
 O         -1.4814663548        0.0505003296       -1.3754102789
 C         -1.4814659931       -2.1492155230        0.5747309539
 C         -0.2086757953       -1.3583838083        0.7499122699
 C         -0.0932618842       -0.5140308512        1.8507497486
 C          1.0497467736        0.2359326740        2.0504253261
 C          2.1026157854        0.1629205515        1.1551262403
 C          1.9979967340       -0.6752302561        0.0542080923
 C          0.8512781321       -1.4354615839       -0.1385091798
 H          0.7757168921       -2.0666301039       -1.0104258802
 N          3.0538684172       -0.7373143362       -0.8692742638
 S          4.6157711063       -0.9543782569       -0.3042142293
 O          5.3364208392       -1.5567951081       -1.4048406011
 O          4.6296578938       -1.6803603691        0.9449958781
 C          5.2232696217        0.7007539595       -0.0548164092
 C          5.1624318085        1.5844333831       -1.1144562356
 C          5.6459331936        2.8713368218       -0.9409478595
 C          6.1824164527        3.2498692913        0.2808377509
 C          6.2388425757        2.3501548893        1.3340995067
 C          5.7556158640        1.0615529588        1.1673366468
 H          5.7744651234        0.3299386907        1.9594558073
 H          6.6561347229        2.6463926061        2.2831196767
 H          6.5585360264        4.2521288226        0.4126910701
 H          5.6026691444        3.5741985525       -1.7573776518
 H          4.7407833898        1.2515905384       -2.0482284803
 H          2.8654035742       -1.3211663789       -1.6707017284
 H          2.9957378515        0.7485471876        1.3007459118
 H          1.1219320662        0.8871233777        2.9085254573
 H         -0.9192022602       -0.4506715248        2.5469345392
 H         -1.7361440930       -2.5918902775        1.5518452011
 C         -1.3369315791       -3.3117762328       -0.3962652981
 C         -2.5444348902       -3.9359993532       -1.0277871174
 C         -1.5683095576       -3.1736572530       -1.8699487244
 H         -0.9304069206       -3.7304762082       -2.5415336670
 H         -1.8558451981       -2.2044563165       -2.2450108178
 H         -2.5779058354       -5.0111471593       -1.1202222841
 H         -3.5042478525       -3.4857150005       -0.8200278784
 H         -0.5492938983       -3.9941709825       -0.0890425093
