  62
        -98.93895920
 C         -1.2799948114       -1.2816888695       -0.2228912493
 C         -2.4138992315       -1.3368010387        0.6253739006
 C         -3.2475118509       -0.1273863582        0.6789759202
 C         -2.8792568802        0.9508785714       -0.0368175800
 C         -3.6607562895        2.2294341718       -0.1455921803
 C         -4.8524863395        2.0378662722       -1.1054397804
 C         -6.2233509695        2.1557913731       -0.4393953706
 H         -6.4343785390        3.2092433433       -0.2436074408
 H         -6.9669570796        1.7990952134       -1.1553562906
 C         -6.3928233000        1.3917004935        0.8773590196
 H         -5.9435028998        1.9604351834        1.6928545495
 H         -7.4643650901        1.3471610641        1.0836985295
 C         -5.8268982708       -0.0340459368        0.9034706000
 H         -5.7743195709       -0.4460545270       -0.1045310199
 H         -6.5188857112       -0.6631234763        1.4672654300
 C         -4.4500466510       -0.1649224474        1.5812083301
 H         -4.3508427006        0.6010487427        2.3554280100
 H         -4.3971365015       -1.1390971573        2.0763794303
 H         -4.7980389990        2.7767048320       -1.9063328306
 H         -4.7593678600        1.0571304721       -1.5763547302
 H         -4.0082075194        2.5340161722        0.8391169296
 H         -2.9860452690        2.9934915314       -0.5306646904
 O         -1.7723899201        0.9736376706       -0.8209251199
 C         -0.9418427807       -0.1308327098       -0.9359905795
 O          0.0304414295        0.0446693595       -1.6930863695
 H          1.9662437186       -1.5279906915       -1.3230891089
 C          1.9943570584       -1.6233914413       -0.2495614089
 C          0.9015602781       -2.1434795005        0.4271360111
 C          0.9579766979       -2.2320655103        1.8152385111
 C          2.0784989981       -1.8098311407        2.5062623911
 C          3.1601712284       -1.2728381515        1.8290821111
 C          3.1065705286       -1.1696785017        0.4457496111
 N          4.1870827190       -0.5831498825       -0.2503405389
 S          4.4964751998        1.0263199574        0.0984640508
 O          5.4196045502        1.4698718867       -0.9215865692
 O          4.9617187397        1.1235579975        1.4594676308
 C          2.9385763003        1.8773463782       -0.0729506296
 C          2.6370221808        2.4727316181       -1.2805009797
 C          1.4160440611        3.1083019688       -1.4288158000
 C          0.5169670010        3.1264071095       -0.3752442801
 C          0.8290637606        2.5134220396        0.8274460401
 C          2.0520467402        1.8825986490        0.9848955803
 H          2.3294554899        1.4008061790        1.9085559605
 H          0.1198015605        2.5167144902        1.6406026900
 H         -0.4379417287        3.6133269700       -0.4947940203
 H          1.1637447515        3.5764335487       -2.3667227301
 H          3.3649009708        2.4358556676       -2.0753556496
 H          4.0995456290       -0.6826936126       -1.2526717889
 H          4.0304945086       -0.9098981918        2.3514313512
 H          2.1093751879       -1.8912890605        3.5823806312
 H          0.1018750476       -2.6222400597        2.3476688211
 C         -0.3773603920       -2.5041020800       -0.2848103789
 H         -0.8915342925       -3.2780833296        0.2999185012
 C         -0.1778881222       -3.0104874604       -1.6971317588
 C          0.4068306071       -4.3742646608       -1.9081824985
 C         -1.0408062627       -4.1252698301       -2.2041652487
 H         -1.3601008426       -4.1004796901       -3.2353505587
 H         -1.7784011830       -4.5343602495       -1.5294223786
 H          1.0831626171       -4.5246056813       -2.7357513084
 H          0.6530494967       -4.9510031807       -1.0294460883
 H          0.0836344983       -2.2319854807       -2.4029532490
 O         -2.7143288921       -2.3533311884        1.3071262208
