  62
        -98.94568006
 C         -1.4966223834       -1.3457887931       -0.6833552990
 C         -2.7841033591       -1.1901104717       -0.1054313355
 C         -3.5419118003       -0.0009050371       -0.5035167269
 C         -3.0102214671        0.8581472283       -1.3914254949
 C         -3.6557155445        2.1168243489       -1.9038544206
 C         -3.4581984574        3.3277484081       -0.9817958238
 C         -4.2814594406        3.3020596788        0.3067233732
 H         -5.3279121878        3.1122157116        0.0650231347
 H         -4.2226573134        4.3008341512        0.7438904513
 C         -3.7972442051        2.2811524787        1.3462559616
 H         -3.7628590504        2.7536807035        2.3308875278
 H         -2.7749675747        1.9742921901        1.1080620049
 C         -4.6770129342        1.0367226598        1.4724800599
 H         -5.6624805393        1.3227628408        1.8471287928
 H         -4.2176636577        0.3679719307        2.2050559020
 C         -4.8586318027        0.2539861923        0.1655705570
 H         -5.5290182434        0.7909515740       -0.5051609640
 H         -5.3027930985       -0.7151321722        0.4058145259
 H         -3.7360391716        4.2198290448       -1.5482810104
 H         -2.3965130476        3.4076125540       -0.7332144775
 H         -4.7210687365        1.9469101526       -2.0626403292
 H         -3.1895285671        2.3372234621       -2.8665568897
 O         -1.7925767482        0.6578361481       -1.9535716461
 C         -0.9881505424       -0.4137241150       -1.5877173834
 O          0.1178645591       -0.4116465564       -2.1628882906
 O         -3.2797139189       -2.0182722408        0.7058564396
 C         -0.6887836890       -2.5372929959       -0.1943334809
 C          0.0887864975       -2.1316443370        1.0366782125
 C         -0.1050743434       -2.7802700792        2.2496068257
 C          0.5653636703       -2.3586883815        3.3843863882
 C          1.4201446649       -1.2739260978        3.3317498055
 C          1.6243059598       -0.6185578192        2.1202819500
 C          0.9811284355       -1.0693930516        0.9777588738
 H          1.1352563955       -0.5572481216        0.0429597085
 N          2.4884644705        0.4795159606        2.0539257765
 S          2.3269868410        1.7303731503        0.9506743699
 O          2.8684118308        2.8795291779        1.6494483789
 O          0.9718774515        1.8626543393        0.4729227545
 C          3.4695056048        1.2760274927       -0.3370153412
 C          3.0326790420        0.8227105449       -1.5639538782
 C          3.9766883330        0.4646698906       -2.5161460647
 C          5.3283102823        0.5656310808       -2.2292198531
 C          5.7506401930        1.0263070854       -0.9906062547
 C          4.8148055167        1.3844956934       -0.0356544179
 H          5.0976856436        1.7598909047        0.9337163570
 H          6.8026715684        1.1060547931       -0.7688815795
 H          6.0551903225        0.2848719776       -2.9751674399
 H          3.6408364349        0.1054329028       -3.4759870286
 H          1.9757071142        0.7400065147       -1.7674813259
 H          2.8326370367        0.8069080275        2.9439681905
 H          1.9232095595       -0.9267276152        4.2214659964
 H          0.4058963205       -2.8671424792        4.3231899926
 H         -0.8044982448       -3.6011698814        2.3050233817
 H         -1.4331468928       -3.2840314437        0.1158458936
 C          0.2169252348       -3.1674691196       -1.2309910395
 C          0.6136415448       -4.6034102185       -1.0688571062
 C         -0.3391398545       -4.2067228815       -2.1555783078
 H          0.0038762006       -4.2195065686       -3.1789409075
 H         -1.3809819858       -4.4694967074       -2.0423459114
 H          1.6158281302       -4.8930499567       -1.3443574596
 H          0.2173977689       -5.1405188593       -0.2204935510
 H          0.9512708969       -2.4852216525       -1.6373055857
