  62
        -98.94054228
 C         -1.5891887925        0.6758628897        0.5659683656
 C         -2.9306713526        1.0597899709        0.8262345568
 C         -3.9290195959        0.6683457459       -0.1771236442
 C         -3.5237585525        0.0361864572       -1.2929614139
 C         -4.4351700110       -0.4613201650       -2.3764688747
 C         -4.8724294835       -1.9092647564       -2.1134593376
 C         -5.3906755966       -2.1508933048       -0.6956401729
 H         -5.6975711278       -3.1973088966       -0.6358368391
 H         -4.5693005756       -2.0161449955        0.0117613400
 C         -6.5639835603       -1.2496908907       -0.2861937233
 H         -7.0270810185       -0.8182395630       -1.1743460758
 H         -7.3204139904       -1.8628350945        0.2081383549
 C         -6.1939869850       -0.1287594471        0.6870287870
 H         -5.6484729681       -0.5469251004        1.5368140838
 H         -7.1198863281        0.3043193083        1.0746823187
 C         -5.3642040056        1.0190898438        0.0981137965
 H         -5.8481636978        1.3972714717       -0.8047478008
 H         -5.3389071773        1.8249370656        0.8375479956
 H         -5.6472950126       -2.1720038642       -2.8359520075
 H         -4.0150621159       -2.5651807175       -2.2816359353
 H         -5.3069555316        0.1874550092       -2.4370476727
 H         -3.8962930864       -0.4196082110       -3.3247160629
 O         -2.2244148880       -0.2631744512       -1.5389336710
 C         -1.2224929725        0.0371071497       -0.6203936699
 O         -0.0890786270       -0.3198170298       -0.9865014741
 H          2.0069791192        0.2442429582        0.9312481001
 C          1.8172887505        1.2749885411        0.6810372083
 C          0.5750242637        1.8348268091        0.9400124021
 C          0.3488877881        3.1611957824        0.5814472687
 C          1.3442640155        3.9151516872       -0.0085103725
 C          2.5839173599        3.3544853721       -0.2597814646
 C          2.8165691637        2.0274605842        0.0776590791
 N          4.0761901963        1.4380515620       -0.1558135286
 S          4.1451056129        0.1400453529       -1.2269662134
 O          5.5380784575        0.0944006916       -1.6288506060
 O          3.1918198038        0.2884750871       -2.3011871399
 C          3.8052837939       -1.2956725018       -0.2360579321
 C          2.6769648283       -2.0529673526       -0.4744114160
 C          2.4764660141       -3.1989853478        0.2806738542
 C          3.3943598768       -3.5577531699        1.2556636768
 C          4.5171606002       -2.7770337017        1.4883696479
 C          4.7302598683       -1.6365092484        0.7321426564
 H          5.5961610560       -1.0097935910        0.8659616497
 H          5.2253020283       -3.0567842247        2.2516434563
 H          3.2306674476       -4.4505460621        1.8389094393
 H          1.5993501727       -3.8018299241        0.1057285104
 H          1.9688908546       -1.7202457635       -1.2168059051
 H          4.7850058559        2.1095155418       -0.4204628209
 H          3.3671300233        3.9377097503       -0.7215452663
 H          1.1558604150        4.9440247738       -0.2762366714
 H         -0.6229806049        3.5949108045        0.7742916243
 C         -0.5439154021        1.0676567402        1.5961200798
 H         -1.0779987350        1.7673810943        2.2604012563
 C         -0.0529311579       -0.0675238330        2.4809810570
 C         -1.0184154698       -1.0943478429        2.9923669604
 C          0.0536332463       -1.4890777532        2.0236894854
 H          0.8835183806       -2.0763891012        2.3882036626
 H         -0.2243913494       -1.7151139153        1.0070685451
 H         -2.0357995746       -1.0375778251        2.6329490470
 H         -0.9344291314       -1.4186257972        4.0184474297
 H          0.7045297292        0.2729546498        3.1804753662
 O         -3.2773878651        1.7037613305        1.8523088420
