  62
        -98.93892697
 C         -1.8953051981       -0.5514734946       -0.0939919239
 C         -2.9494206826       -0.6457679035        0.8500862452
 C         -4.1376611058        0.2008379551        0.6349620468
 C         -4.1580307991        1.0214589681       -0.4313719011
 C         -5.2609239424        1.9416447905       -0.8822612038
 C         -6.4228474500        1.1906108442       -1.5524433034
 C         -6.8637469335       -0.0831829950       -0.8361802947
 H         -7.6125944384       -0.5739343074       -1.4635071340
 H         -6.0130472090       -0.7623017038       -0.7565129969
 C         -7.4774936914        0.1261553843        0.5460800335
 H         -7.8277877690       -0.8482747148        0.8960509148
 H         -8.3488407387        0.7787133789        0.4562246947
 C         -6.5445156034        0.7049255595        1.6120028552
 H         -7.0324248418        0.5658421490        2.5812062259
 H         -6.4171139412        1.7764668932        1.4830148686
 C         -5.1844150068        0.0208857775        1.7077007493
 H         -4.7026212894        0.3323406192        2.6425191865
 H         -5.3325691671       -1.0603664230        1.8080249693
 H         -6.1076485798        0.9126744877       -2.5611931421
 H         -7.2694216583        1.8736751075       -1.6403107197
 H         -4.8208686989        2.6241204733       -1.6129108440
 H         -5.6153696768        2.5371571798       -0.0460838316
 O         -3.1197870948        1.0867294506       -1.3104495449
 C         -1.9744044074        0.3242090004       -1.1756804309
 O         -1.1341891103        0.5307733013       -2.0761672908
 O         -2.9086732827       -1.4236125545        1.8409907245
 C         -0.6880352296       -1.4432050132        0.1427061251
 C          0.4487060658       -0.6787351181        0.7779852754
 C          0.8980824473       -0.9978805518        2.0537852574
 C          1.9543042218       -0.3079012479        2.6237780583
 C          2.5852014243        0.7098212408        1.9319137157
 C          2.1410058810        1.0369021494        0.6567888541
 C          1.0855563724        0.3417184458        0.0856295325
 H          0.7389220587        0.6081678273       -0.9017566820
 N          2.7882097328        2.0608037186       -0.0604821416
 S          4.4551501038        1.9350288469       -0.1783305468
 O          5.0614960567        2.4748128795        1.0136101867
 O          4.8095867542        2.5913139048       -1.4171442204
 C          4.7727587564        0.1817034033       -0.2751299362
 C          4.2560765951       -0.5121122324       -1.3515057862
 C          4.4439371358       -1.8826693950       -1.4170110777
 C          5.1379522281       -2.5337871193       -0.4086536911
 C          5.6547549119       -1.8221514483        0.6624846826
 C          5.4696610130       -0.4506625210        0.7339305283
 H          5.8509497311        0.1408823082        1.5501083437
 H          6.1961803629       -2.3307197855        1.4437413686
 H          5.2761413086       -3.6021822521       -0.4601446343
 H          4.0444736651       -2.4366375989       -2.2513078375
 H          3.7217462071        0.0233295779       -2.1202543598
 H          2.3734127671        2.2350542605       -0.9646909430
 H          3.4085081687        1.2604313408        2.3577095603
 H          2.2903016960       -0.5651576269        3.6164925282
 H          0.4038849136       -1.7848221119        2.6043214602
 H         -1.0285787411       -2.1952277121        0.8667724257
 C         -0.2150901861       -2.1589163315       -1.1083879332
 C          0.6399745237       -3.3806398327       -0.9647283721
 C         -0.7758551289       -3.5078675696       -1.4394690586
 H         -0.9560280847       -3.7494293351       -2.4763323606
 H         -1.5067047935       -3.9255744472       -0.7624050635
 H          1.4358846266       -3.5376570039       -1.6756666216
 H          0.8713333073       -3.7130777890        0.0355439527
 H         -0.0087040912       -1.4914519563       -1.9346106684
