  62
        -98.94729406
 C         -2.3041043282       -0.6801132622        0.2255941084
 C         -1.6130015576        0.0041879821       -0.8038150892
 C         -1.8414575314        1.4537350171       -0.8762925376
 C         -2.5718132343        2.0634091889        0.0737893157
 C         -2.9097867816        3.5282229679        0.1354620583
 C         -1.8011059623        4.3983972111        0.7421472903
 C         -0.5999731851        4.6482967379       -0.1700302593
 H         -0.9500129003        4.9974707475       -1.1424572203
 H         -0.0210201044        5.4575837089        0.2794665170
 C          0.3207894157        3.4347782034       -0.3583585379
 H          1.3631097200        3.7538017471       -0.2718685801
 H          0.1528603171        2.7087216789        0.4411784529
 C          0.1795016311        2.7299785973       -1.7064895669
 H          0.4804504332        3.4097037885       -2.5075584998
 H          0.8647293418        1.8800313948       -1.7094309450
 C         -1.2307947399        2.2129525191       -2.0174004472
 H         -1.1601466091        1.5288256725       -2.8670368253
 H         -1.8786704785        3.0454361690       -2.2942527237
 H         -2.2457289348        5.3638821485        0.9954452850
 H         -1.4596745587        3.9341997258        1.6707616315
 H         -3.1536877335        3.8920817522       -0.8633972857
 H         -3.7990787212        3.6139224386        0.7639304070
 O         -3.1251420767        1.3863851437        1.1153985427
 C         -3.0085350406        0.0105114802        1.2140350876
 O         -3.5703353850       -0.4786122906        2.2165206915
 O         -0.8583867045       -0.5567885315       -1.6400580504
 C         -2.2048550033       -2.1880854881        0.3934088976
 C         -0.7582949312       -2.6070090023        0.3061948348
 C         -0.2703311898       -3.5778030450       -0.5584073179
 C          1.0806936570       -3.8812691183       -0.5781229074
 C          1.9724797667       -3.2067500223        0.2356645167
 C          1.4923867221       -2.2300820884        1.1011549399
 C          0.1350979472       -1.9644957875        1.1546968305
 H         -0.2270571394       -1.2066017378        1.8348277624
 N          2.3570071613       -1.4748627861        1.9226839707
 S          2.4324140251        0.1713800895        1.6061911921
 O          3.3902261464        0.6958634181        2.5564594825
 O          1.1113710501        0.7414364747        1.6534992216
 C          3.1262859921        0.2684327584       -0.0352176724
 C          2.3635295507       -0.1137810005       -1.1213368366
 C          2.9478217839       -0.1043410485       -2.3799296776
 C          4.2695768463        0.2832116422       -2.5319011240
 C          5.0211421250        0.6635610656       -1.4299389156
 C          4.4478098447        0.6504154996       -0.1691616697
 H          4.9918109787        0.9341902072        0.7173213425
 H          6.0490935591        0.9662329421       -1.5483188149
 H          4.7150691332        0.2884070420       -3.5141759127
 H          2.3543625380       -0.4005095633       -3.2301075581
 H          1.3325794827       -0.4055168225       -0.9902789610
 H          3.2978571661       -1.8429350606        1.9686142607
 H          3.0295051968       -3.4236485773        0.1983668580
 H          1.4469205832       -4.6387676817       -1.2540823731
 H         -0.9428745762       -4.0824399777       -1.2323218862
 H         -2.5415253551       -2.3767261693        1.4268437486
 C         -3.1288475059       -2.9845052154       -0.5156364212
 C         -4.3972378722       -2.3839718777       -1.0426875996
 C         -3.2682731912       -2.6907004706       -1.9779464476
 H         -3.3815062059       -3.5225026798       -2.6577786282
 H         -2.6939168394       -1.8713935976       -2.3787855702
 H         -5.2814309351       -3.0027307193       -1.0771562931
 H         -4.5975475592       -1.3495999384       -0.8017652615
 H         -3.1827277307       -4.0280110748       -0.2205198368
