  62
        -98.93421257
 C          1.6870337957        1.1186284282        0.6506564345
 C          1.9720954798       -0.2630011004        0.8147501190
 C          3.3608940972       -0.6852590270        0.5852849889
 C          4.2756825975        0.2418380596        0.2492943117
 C          5.7144825212       -0.0289537264       -0.0876234224
 C          5.8238883980       -0.5952143000       -1.5177130061
 C          6.3258386685       -2.0376159845       -1.5871866349
 H          6.1570229043       -2.3938996267       -2.6056515336
 H          7.4033155611       -2.0470429221       -1.4094167502
 C          5.6799370591       -3.0169156742       -0.6023665559
 H          5.9358847275       -4.0230078812       -0.9414760001
 H          6.1318495431       -2.8970821345        0.3833847773
 C          4.1555400088       -2.9176865852       -0.4594104233
 H          3.7564928453       -3.9303474158       -0.3739202282
 H          3.7130317374       -2.4765499060       -1.3527776023
 C          3.6771368163       -2.1422065548        0.7822125646
 H          2.7399681939       -2.5853914500        1.1313684571
 H          4.4115419744       -2.2506647537        1.5852163130
 H          4.8411296550       -0.5268732441       -1.9890538319
 H          6.4976108166        0.0297214858       -2.1059310162
 H          6.2488002602        0.9183472623       -0.0124740917
 H          6.1363351445       -0.7252248171        0.6337963990
 O          3.9678571695        1.5543261989        0.1002347360
 C          2.6766072830        2.0298829727        0.2827402009
 O          2.5730156979        3.2570524784        0.0874265043
 O          1.0977727989       -1.1066633322        1.1495573997
 C          0.2495189493        1.5406375072        0.8961005577
 C         -0.5392047219        1.6463424589       -0.3874016739
 C         -0.1796599036        2.5350859034       -1.3950070719
 C         -0.9422220998        2.6300603592       -2.5445384558
 C         -2.0836732932        1.8630557906       -2.7014332532
 C         -2.4516146751        0.9727044640       -1.6999431817
 C         -1.6693221841        0.8607433383       -0.5590917472
 H         -1.9498368477        0.1554350155        0.2080238321
 N         -3.5949609413        0.1737108748       -1.8306692570
 S         -4.5453438674       -0.1659267170       -0.4956062875
 O         -5.8368885955       -0.5079966311       -1.0522218162
 O         -4.5314475914        0.9180667179        0.4582507110
 C         -3.8167083024       -1.6276367409        0.2105454867
 C         -3.5291234727       -1.6659003967        1.5601290408
 C         -2.9817109697       -2.8200856735        2.0972074339
 C         -2.7339794868       -3.9107115368        1.2786951126
 C         -3.0317944164       -3.8577971902       -0.0745910161
 C         -3.5803012411       -2.7072120027       -0.6170041651
 H         -3.8267029053       -2.6295044310       -1.6628214842
 H         -2.8356976418       -4.7085996712       -0.7071519286
 H         -2.3036789904       -4.8059898082        1.6989422225
 H         -2.7460901046       -2.8616324405        3.1486222606
 H         -3.7309696356       -0.7922384229        2.1603353304
 H         -4.1481283394        0.3489290305       -2.6566187328
 H         -2.6856360706        1.9512198037       -3.5932345571
 H         -0.6525216818        3.3201722588       -3.3227668063
 H          0.7014691603        3.1451394456       -1.2681603276
 H         -0.1914334358        0.7224451240        1.4818964101
 C          0.1068844458        2.8247607333        1.6916744333
 C         -1.2270570224        3.1501866913        2.2924709399
 C         -0.0825590328        2.7547063168        3.1756197981
 H          0.3803169220        3.5124396116        3.7899508226
 H         -0.1047977577        1.7758426056        3.6320399195
 H         -1.5488492407        4.1804823951        2.2995383719
 H         -2.0320995049        2.4454301288        2.1414138501
 H          0.6953625999        3.6434752511        1.2990813894
