  62
        -98.93986055
 C          0.9035881409        1.5888316747        0.3807299406
 C          1.4878981641        0.9411282801       -0.7339856613
 C          2.3768991720       -0.2081410065       -0.4462228656
 C          2.6433585817       -0.5281732656        0.8327239887
 C          3.5396349979       -1.6178285267        1.3579151591
 C          5.0328666049       -1.2834901865        1.2095639809
 C          5.4276295480       -0.6770962269       -0.1343619507
 H          6.4791354796       -0.3849413265       -0.0712553155
 H          4.8481347980        0.2324302658       -0.3026190824
 C          5.2728044609       -1.6044952299       -1.3373014089
 H          5.8849138984       -2.4962557067       -1.1847362803
 H          5.6675883284       -1.0758377370       -2.2087010037
 C          3.8437565641       -2.0472075553       -1.6600684228
 H          3.5107834253       -2.8298659339       -0.9832294747
 H          3.8557477095       -2.4911352851       -2.6600822060
 C          2.8190438152       -0.9180464623       -1.7021241316
 H          1.8938472534       -1.3013379167       -2.1548591018
 H          3.1723885056       -0.1373235604       -2.3856823860
 H          5.6085766060       -2.1940481834        1.3831772078
 H          5.2960760864       -0.5634512449        1.9880840434
 H          3.3017079347       -2.5602426984        0.8728222904
 H          3.3132530211       -1.7254865059        2.4210277235
 O          2.1217309225        0.1774462929        1.8772962973
 C          1.2239051708        1.2085680751        1.6861800691
 O          0.7907291751        1.7107361487        2.7427274973
 O          1.2928389099        1.2759062891       -1.9325607580
 C         -0.1382993485        2.6882175769        0.2711913534
 C         -1.5245156435        2.1056025597        0.1076524791
 C         -2.6027416494        2.6433021255        0.8020335899
 C         -3.8721580668        2.1150991510        0.6534007903
 C         -4.0871789572        1.0231662173       -0.1684572029
 C         -3.0160713219        0.4747973984       -0.8631672329
 C         -1.7501085608        1.0281246238       -0.7361688461
 H         -0.9411500719        0.6010133702       -1.3062414322
 N         -3.1876876550       -0.6538227269       -1.6862698381
 S         -2.1501982936       -1.9495099438       -1.4559637105
 O         -0.8604550239       -1.6849342552       -2.0362930611
 O         -2.8685688240       -3.0833733689       -1.9983222514
 C         -2.0264609447       -2.0973261859        0.3166713490
 C         -0.9138826519       -1.6056113043        0.9667605380
 C         -0.8692383897       -1.6539401535        2.3511750996
 C         -1.9340554088       -2.1923914748        3.0565824435
 C         -3.0419674755       -2.6921179677        2.3883033526
 C         -3.0940451484       -2.6400391180        1.0052615607
 H         -3.9328263915       -3.0248023329        0.4481110733
 H         -3.8645707991       -3.1152008614        2.9418976733
 H         -1.8956886457       -2.2216904738        4.1340208050
 H         -0.0106328901       -1.2542147677        2.8682722936
 H         -0.1029213335       -1.1937469624        0.3859301538
 H         -4.1424106383       -0.9806625931       -1.7393497460
 H         -5.0733557307        0.5973551441       -0.2729281853
 H         -4.6998739027        2.5458452433        1.1953442802
 H         -2.4380131227        3.4749261577        1.4704193588
 H         -0.1141842541        3.2196470571        1.2328867030
 C          0.1328489694        3.6921357567       -0.8332319220
 C         -0.3880515151        5.0902537434       -0.7001857284
 C          1.0819272561        4.8232315086       -0.5814412620
 H          1.7349348930        5.1338638804       -1.3830199567
 H          1.5340761812        4.8856125685        0.3980242241
 H         -0.7501707829        5.5885545808       -1.5862314855
 H         -0.9277356023        5.3445611719        0.1991293634
 H          0.1401104617        3.2472570845       -1.8196995870
