  62
        -98.93800994
 C         -2.3910600468       -1.2078276933       -0.1036483754
 C         -3.1699620508       -0.4930614942        0.8324659462
 C         -4.0069876534        0.6040368962        0.3082441614
 C         -3.9773919248        0.8638252001       -1.0125215819
 C         -4.7054146964        1.9468415370       -1.7633749326
 C         -4.0630165851        3.3311727071       -1.5759937844
 C         -3.6480802316        3.6595477238       -0.1439830793
 H         -2.9522751469        2.8970163225        0.2119418231
 H         -3.1046412123        4.6080425149       -0.1641416330
 C         -4.7974535327        3.8017831634        0.8510946145
 H         -4.3639140348        4.1123981396        1.8054041954
 H         -5.4644774370        4.5988407313        0.5151777329
 C         -5.6313853757        2.5425359586        1.0955662599
 H         -6.3212043203        2.3644505450        0.2751425157
 H         -6.2448390725        2.7265355454        1.9824792349
 C         -4.8191324165        1.2837851883        1.3845777523
 H         -5.4973630600        0.5139545169        1.7725364888
 H         -4.1204325562        1.4887797049        2.2041923369
 H         -4.7612091491        4.0879594570       -1.9370682169
 H         -3.1663451567        3.3737347227       -2.1990522610
 H         -4.6556533801        1.6816874069       -2.8216439531
 H         -5.7520081874        1.9618725173       -1.4744412395
 O         -3.1962332113        0.1558600098       -1.8776903983
 C         -2.3868683231       -0.8845446184       -1.4601249685
 O         -1.7300796742       -1.4261727251       -2.3683556118
 O         -3.1629131207       -0.7488033444        2.0688792675
 C         -1.5126845811       -2.3458550444        0.3799314471
 C         -0.0607535582       -2.0603190919        0.0813466081
 C          0.8155623065       -3.0149274122       -0.4177008726
 C          2.1413426588       -2.6943659063       -0.6545681850
 C          2.6225032609       -1.4238333696       -0.3999517934
 C          1.7590670501       -0.4643688374        0.1130710122
 C          0.4338129662       -0.7907800670        0.3552330063
 H         -0.2364798914       -0.0412958583        0.7596407370
 N          2.2354085647        0.8341484529        0.3670407259
 S          3.6240776457        1.0015480346        1.2973060297
 O          3.7693811334       -0.0916758242        2.2304915837
 O          3.5368199978        2.3275834778        1.8691922622
 C          4.9462689770        0.9683759817        0.1058602423
 C          5.9631120555        0.0420772446        0.2303861900
 C          6.9850300125        0.0394799421       -0.7063574366
 C          6.9723085280        0.9586992816       -1.7442050612
 C          5.9451567019        1.8844600168       -1.8531568595
 C          4.9212524385        1.8931928777       -0.9195684457
 H          4.1070042218        2.5970662766       -0.9663053390
 H          5.9383753263        2.5976552705       -2.6616603860
 H          7.7675593314        0.9540376383       -2.4727871433
 H          7.7845519104       -0.6790169752       -0.6234959887
 H          5.9277643009       -0.6568632442        1.0508076293
 H          1.5203039590        1.4728049799        0.6836005670
 H          3.6518135662       -1.1688437524       -0.5915742192
 H          2.8087815502       -3.4452491667       -1.0488966555
 H          0.4599510209       -4.0106263221       -0.6251806138
 H         -1.6346668908       -2.3647652407        1.4739900585
 C         -1.9997602697       -3.6633913649       -0.1862092630
 C         -1.8167411159       -4.9346613544        0.5861078164
 C         -3.1808323343       -4.3297770995        0.4511469845
 H         -3.9036186850       -4.8175450904       -0.1854200763
 H         -3.6155896759       -3.8466643438        1.3142659821
 H         -1.6050108415       -5.8427863465        0.0420865544
 H         -1.3277742061       -4.8705237657        1.5465188275
 H         -1.9262917471       -3.7023893342       -1.2672082897
