  62
        -98.93209362
 C         -2.2616442192       -1.2410463201        0.1354538279
 C         -2.5884675653       -0.0187706423       -0.5005422118
 C         -3.7124329860        0.7310188889        0.0861464610
 C         -4.3214094171        0.2748786147        1.1942437338
 C         -5.4376172205        0.9428244854        1.9527312138
 C         -6.7829366366        1.0708823375        1.2122023766
 C         -6.9789381230        2.4057305419        0.4828023563
 H         -6.3535717678        3.1614775772        0.9596365886
 H         -8.0140353274        2.7279791240        0.6129509891
 C         -6.7029262553        2.3905915426       -1.0237997843
 H         -6.6321068800        3.4268509237       -1.3614711045
 H         -7.5526732578        1.9353065850       -1.5376719339
 C         -5.4466518332        1.6393419503       -1.4651876628
 H         -5.2627659263        1.8702332106       -2.5164985641
 H         -5.6260077528        0.5626823495       -1.4131939616
 C         -4.1828869443        1.9568768208       -0.6421056182
 H         -4.3728709955        2.7699551417        0.0570114166
 H         -3.3709392065        2.2575087135       -1.3076487561
 H         -7.5673942920        0.9766106376        1.9646887173
 H         -6.8982297309        0.2371762773        0.5200452901
 H         -5.1032339488        1.9333013263        2.2695461225
 H         -5.5809946132        0.3363594945        2.8492782707
 O         -3.9444412420       -0.8816493171        1.8045640433
 C         -2.9364968674       -1.6710831738        1.2827911798
 O         -2.7308161612       -2.7226068972        1.9205667839
 O         -1.9836367640        0.4500120038       -1.5007620611
 C         -1.1812478425       -2.1848652542       -0.3684602831
 C          0.1830470391       -1.8001856755        0.1414544605
 C          1.0100658540       -2.7371169720        0.7490308033
 C          2.2773840160       -2.3843470760        1.1795074846
 C          2.7458763952       -1.0940833118        1.0077343401
 C          1.9253900688       -0.1498563611        0.4047776809
 C          0.6535343938       -0.5038210879       -0.0182111860
 H          0.0245125922        0.2310031964       -0.4998589654
 N          2.4085337739        1.1641336339        0.2116452476
 S          3.6776235060        1.2823634654       -0.8923112118
 O          3.6602222289        2.6507537709       -1.3606114691
 O          3.5861270002        0.2542502889       -1.9041667398
 C          5.1310061672        1.0258067317        0.1032184240
 C          5.9670415533       -0.0407798975       -0.1628383134
 C          7.0959907730       -0.2184616240        0.6218778202
 C          7.3670336697        0.6687773764        1.6523014077
 C          6.5182267859        1.7365107726        1.9048022813
 C          5.3887014945        1.9206797709        1.1234342655
 H          4.7055623435        2.7385043368        1.2814126570
 H          6.7327595637        2.4243596346        2.7067814322
 H          8.2454101604        0.5276450899        2.2621578948
 H          7.7573520310       -1.0472726777        0.4268592789
 H          5.7117613321       -0.7071461095       -0.9710357262
 H          1.6769026383        1.8050177042       -0.0656175940
 H          3.7323382051       -0.8130321033        1.3388069608
 H          2.9079857694       -3.1221150542        1.6513309034
 H          0.6491700777       -3.7457212400        0.8886994859
 H         -1.4334886971       -3.1633057017        0.0697045682
 C         -1.2109003221       -2.3498278937       -1.8840198650
 C         -0.1362804617       -1.8616415238       -2.8047127226
 C         -0.2901897464       -3.3292922449       -2.5497941014
 H         -0.6803169477       -3.9568072239       -3.3366763456
 H          0.4567519668       -3.8050514146       -1.9322059882
 H         -0.4437863198       -1.4634629653       -3.7601292359
 H          0.7220015666       -1.3558917097       -2.3885405589
 H         -2.2237470704       -2.2996667130       -2.2717360296
