  62
        -98.93843998
 C         -2.0735195100       -1.3963851705        0.2023883691
 C         -2.0863892399       -0.5351283706       -0.9200324410
 C         -2.9780486799        0.6360814694       -0.8339910312
 C         -3.7066143000        0.8411581195        0.2757710887
 C         -4.6913129201        1.9472988995        0.5601531985
 C         -4.2850119601        3.3752474495        0.1658550883
 C         -2.7786267901        3.6661409595        0.2359456184
 H         -2.2708205601        2.8573593796        0.7646260086
 H         -2.6213054002        4.5819250796        0.8087730083
 C         -2.1436631500        3.8618708993       -1.1438383916
 H         -1.2109891900        4.4205708294       -1.0301214115
 H         -2.8139384500        4.4735175193       -1.7516819217
 C         -1.8139173199        2.5785373393       -1.9059405314
 H         -0.9710998099        2.0684056593       -1.4323078212
 H         -1.4931699798        2.8585248591       -2.9125094514
 C         -2.9616140199        1.5622575392       -2.0165373813
 H         -2.7719858798        0.9353283291       -2.8920904212
 H         -3.9188471499        2.0605479992       -2.1488249715
 H         -4.8174845602        4.0513672695        0.8367153982
 H         -4.6406414500        3.5903195293       -0.8409806117
 H         -4.8660245402        1.9001973396        1.6375696185
 H         -5.6362740300        1.6959897594        0.0700415384
 O         -3.6570608401       -0.0081321404        1.3394203588
 C         -2.8557111601       -1.1336432604        1.3314502590
 O         -2.9262030001       -1.8167930702        2.3720116991
 O         -1.4058555798       -0.7158246207       -1.9650415509
 C         -1.2227457899       -2.6566060805        0.2720458793
 C          0.2233504900       -2.2991387404        0.5203200894
 C          0.7766253099       -2.4462795802        1.7878111095
 C          2.0951700199       -2.1010983301        2.0271213595
 C          2.8864071000       -1.5940982302        1.0115925895
 C          2.3356779001       -1.4240336004       -0.2521812405
 C          1.0169929701       -1.7826618705       -0.4936831106
 H          0.5914022302       -1.6268867906       -1.4730154306
 N          3.1162536302       -0.8800970905       -1.2864141405
 S          4.0848188101        0.4332078995       -0.9259518906
 O          4.2167138202        1.1648893894       -2.1659568007
 O          5.3184067900       -0.0262037704       -0.3364748705
 C          3.1761202500        1.3954373597        0.2723166292
 C          1.9081559100        1.8299943596       -0.0590144610
 C          1.1908353599        2.5690817597        0.8671405489
 C          1.7490860498        2.8597531399        2.1025165289
 C          3.0247682198        2.4198152999        2.4186376391
 C          3.7467290399        1.6794441698        1.4963189492
 H          4.7401791498        1.3147473299        1.7011988993
 H          3.4565720897        2.6482500801        3.3796518791
 H          1.1834901497        3.4325427299        2.8204150288
 H          0.1978328899        2.9120499296        0.6234191488
 H          1.4965590101        1.5887392195       -1.0269499210
 H          2.6039758602       -0.7359755007       -2.1444672206
 H          3.9182050700       -1.3298732002        1.1777527396
 H          2.5123775098       -2.2280377400        3.0143309696
 H          0.1584804899       -2.8250819301        2.5891056795
 H         -1.5855677000       -3.2053822804        1.1509636594
 C         -1.3936448598       -3.5423783406       -0.9463969606
 C         -1.0034087898       -4.9855987106       -0.8542686604
 C         -2.4504502298       -4.6036311706       -0.9348704605
 H         -2.9887636497       -4.8046429708       -1.8490686905
 H         -3.0543813398       -4.6989247405       -0.0440001906
 H         -0.5454238897       -5.4519971607       -1.7130171603
 H         -0.6257630698       -5.3411515305        0.0925720897
 H         -1.2199945897       -3.0324842507       -1.8845134506
