  62
        -98.94236893
 C          0.7782640305        1.4890969438        0.1672326962
 C          1.4196507375        0.4477314765        0.8736601324
 C          2.3061090524       -0.4284137952        0.0895148646
 C          2.4140481844       -0.2355690076       -1.2364675684
 C          3.1813110864       -1.0522523208       -2.2476188945
 C          4.5789633022       -1.5471732871       -1.8560289590
 C          5.3800150477       -0.5772864128       -0.9752740998
 H          6.3630164475       -0.4202683683       -1.4229111768
 H          4.8791331971        0.3917214988       -0.9394682283
 C          5.5874017094       -1.0978658086        0.4484711729
 H          5.8514664658       -2.1564143926        0.3993560787
 H          6.4330977254       -0.5697463988        0.8951582180
 C          4.3959595456       -0.9209492209        1.3882510915
 H          4.2557679273        0.1401750908        1.6109904033
 H          4.6366323574       -1.4178820267        2.3309902195
 C          3.0538854775       -1.4688309805        0.8741949256
 H          3.1918956119       -2.3858345232        0.3057329097
 H          2.4293523415       -1.6840728209        1.7450406549
 H          4.4981671501       -2.5077854411       -1.3495077010
 H          5.1194388980       -1.7281687378       -2.7868279428
 H          2.5567838960       -1.9072212426       -2.5267160487
 H          3.2536785018       -0.4128273333       -3.1311842602
 O          1.7644463013        0.7741275992       -1.8812454512
 C          0.9276112558        1.6481878129       -1.2097559598
 O          0.3989551401        2.5139696041       -1.9341241072
 O          1.2454783795        0.2437119165        2.1057014261
 C         -0.1944952483        2.3924674081        0.9048157425
 C         -1.5625031911        2.2221671098        0.2916199336
 C         -2.3913853409        3.2759077174       -0.0678083856
 C         -3.6014637989        3.0280870059       -0.6938661138
 C         -3.9980665405        1.7372096059       -0.9899070212
 C         -3.1824118040        0.6745469730       -0.6157969877
 C         -1.9959529580        0.9241600979        0.0505283432
 H         -1.3660851412        0.0960831150        0.3413538802
 N         -3.5451713422       -0.6526441289       -0.8859960958
 S         -2.3648003219       -1.8051397131       -1.1648544122
 O         -1.2103618086       -1.2675832316       -1.8472592461
 O         -3.0677400941       -2.8666731181       -1.8575554808
 C         -1.9292217217       -2.3860177918        0.4599131212
 C         -0.6070899114       -2.6493945950        0.7554770478
 C         -0.2876385542       -3.1493803205        2.0078639960
 C         -1.2898580016       -3.3706989616        2.9389958816
 C         -2.6135104672       -3.0999554643        2.6267123509
 C         -2.9406456256       -2.6076752220        1.3738820410
 H         -3.9570287434       -2.3880718988        1.0929878807
 H         -3.3898349265       -3.2711146706        3.3549400791
 H         -1.0349694216       -3.7545377827        3.9141871501
 H          0.7416279845       -3.3579662934        2.2516233021
 H          0.1460744204       -2.4417092408        0.0103609040
 H         -4.3467383345       -0.7685919367       -1.4883976831
 H         -4.9243928984        1.5493500207       -1.5109523662
 H         -4.2345052555        3.8553635599       -0.9771072068
 H         -2.0839188729        4.2907916376        0.1238934171
 H         -0.2234493030        2.0134872922        1.9373279082
 C          0.2938772278        3.8247222736        0.9200406566
 C         -0.1001734550        4.7443700077        2.0362145151
 C          1.3058153603        4.2345729397        1.9464394394
 H          2.0876819186        4.9194090980        1.6542203610
 H          1.6252805444        3.4834437895        2.6539502410
 H         -0.2822515364        5.7836304910        1.8078449626
 H         -0.7346556103        4.3441655316        2.8122563132
 H          0.3953536641        4.2387365605       -0.0770268431
