  62
        -98.93470896
 C         -2.6435293668       -0.9779389768        0.7200539505
 C         -2.9627273849        0.2685760760        1.3185695254
 C         -4.3043790008        0.7959882259        1.0528495674
 C         -5.1584899304        0.0854257316        0.2946208027
 C         -6.5727473926        0.4698695808       -0.0462649811
 C         -6.6897881425        1.4220246560       -1.2442600648
 C         -6.2421619417        2.8597216129       -0.9778316029
 H         -6.5799303246        3.4622881629       -1.8233482244
 H         -6.7462164826        3.2368884076       -0.0874966287
 C         -4.7243603495        3.0319222729       -0.8246029504
 H         -4.3936202113        3.8899017417       -1.4143260537
 H         -4.2143688064        2.1535032574       -1.2273495520
 C         -4.2532712491        3.2612376491        0.6116477932
 H         -4.6503042197        4.2096165024        0.9804987923
 H         -3.1624432817        3.3311856723        0.6061415415
 C         -4.6518541474        2.1504921020        1.5921867556
 H         -4.0903717822        2.2929717199        2.5186910884
 H         -5.7170162784        2.2095169442        1.8151896022
 H         -7.7401051313        1.4407205004       -1.5442388412
 H         -6.1140512900        1.0095514484       -2.0760673534
 H         -7.0501113104        0.9191859803        0.8250588884
 H         -7.0960264731       -0.4569912877       -0.2909483426
 O         -4.8244907683       -1.1135425326       -0.2477193808
 C         -3.5580187669       -1.6658810794       -0.0790185990
 O         -3.4059392744       -2.7456970254       -0.6777201159
 O         -2.1605324400        0.9046463973        2.0540401306
 C         -1.2493658613       -1.5148233573        0.9880025855
 C         -0.2768139172       -1.0464609318       -0.0651178317
 C         -0.5535846932       -1.1917367811       -1.4206865552
 C          0.3567010869       -0.7645821606       -2.3706121849
 C          1.5534843788       -0.1818479579       -1.9924633787
 C          1.8389357005       -0.0291198297       -0.6423465620
 C          0.9256908499       -0.4657981043        0.3102309325
 H          1.1450625617       -0.3348873810        1.3613815960
 N          3.0432953732        0.5812180786       -0.2494921806
 S          4.4488861879        0.1033639697       -1.0594170162
 O          4.5264919022        0.8251595247       -2.3043343521
 O          4.4912169440       -1.3381954283       -1.1604508604
 C          5.7037544147        0.6893023113        0.0609937430
 C          6.0779861078        2.0184959639        0.0045114306
 C          7.0353134288        2.4820121947        0.8927291393
 C          7.5981804695        1.6145235841        1.8172383407
 C          7.2131326146        0.2829525138        1.8607202837
 C          6.2554794676       -0.1873008564        0.9759333076
 H          5.9328144948       -1.2161944789        0.9677477715
 H          7.6548532278       -0.3895397804        2.5783489810
 H          8.3440925415        1.9776671826        2.5064793906
 H          7.3393892028        3.5158084210        0.8609759775
 H          5.6202095822        2.6532901305       -0.7360052271
 H          3.1747007303        0.5554615928        0.7527158345
 H          2.2708586272        0.1505594538       -2.7253750380
 H          0.1322520977       -0.8867958948       -3.4199763374
 H         -1.4843356314       -1.6498284403       -1.7206642965
 H         -0.9515598382       -1.0445994966        1.9390197399
 C         -1.2095450404       -3.0214804924        1.2008782091
 C         -0.6203108808       -3.9864492301        0.2212642264
 C          0.0913161864       -3.7031654803        1.5080227797
 H          0.1096687241       -4.4658677544        2.2715481267
 H          0.9904605068       -3.1073577721        1.4541596364
 H         -1.1182109369       -4.9355341140        0.0950765503
 H         -0.1970223106       -3.5966420966       -0.6910813461
 H         -2.0800354160       -3.3711234609        1.7468118081
