  62
        -98.93564464
 C         -2.3238815102       -0.5795902296        0.0363919095
 C         -3.3990415003       -0.4520977993        0.9481109993
 C         -4.4301871601        0.5325318308        0.5961706590
 C         -4.2928804898        1.2665448907       -0.5227598711
 C         -5.2224093895        2.3471245708       -1.0086783014
 C         -6.6390770995        1.8941679410       -1.4123156415
 C         -7.6845328697        2.0176033913       -0.2968596317
 H         -7.3525069796        2.7759408414        0.4132120582
 H         -8.6184120595        2.3817102915       -0.7299516819
 C         -8.0157822400        0.7243842215        0.4542373084
 H         -8.5629528201        0.9947738317        1.3599535882
 H         -8.6811360900        0.1146381315       -0.1613165417
 C         -6.8217010403       -0.1490766087        0.8397452087
 H         -7.1713411305       -0.9184936285        1.5310694987
 H         -6.4504229602       -0.6745692989       -0.0433606112
 C         -5.6439056102        0.6147398412        1.4756362788
 H         -5.9138446101        1.6530696312        1.6619823986
 H         -5.3714569405        0.1531302312        2.4268583189
 H         -6.6007956196        0.8719886510       -1.7879568314
 H         -6.9500176092        2.5312908210       -2.2417600317
 H         -5.2945167395        3.1196859709       -0.2398704115
 H         -4.7275514292        2.7861971606       -1.8772656813
 O         -3.2263968296        1.1331026304       -1.3579955809
 C         -2.2257194698        0.2049701502       -1.1124165206
 O         -1.3277570297        0.1810447700       -1.9752499304
 H          1.0851615598       -1.7014505304       -1.1670448598
 C          1.1605917098       -1.0492333503       -0.3110783199
 C          0.0769459897       -0.8915566100        0.5369629699
 C          0.2076027196       -0.0384419199        1.6304078699
 C          1.3881749797        0.6400930699        1.8613328500
 C          2.4653385998        0.4874337396        1.0048322902
 C          2.3469673099       -0.3611171405       -0.0861477697
 N          3.4338881800       -0.5120957708       -0.9638480795
 S          4.9356108598       -0.8905354810       -0.3189421992
 O          5.6445083699       -1.5706267813       -1.3810673390
 O          4.8079920195       -1.6065271108        0.9291696408
 C          5.7002892301        0.6925801789       -0.0377339593
 C          5.8408995904        1.5490292787       -1.1119779394
 C          6.4490838906        2.7779402886       -0.9125945694
 C          6.9060159004        3.1267766387        0.3496971906
 C          6.7596542101        2.2547675089        1.4174531207
 C          6.1514574299        1.0240958189        1.2246904708
 H          6.0133794896        0.3152606191        2.0255591708
 H          7.1162503800        2.5275845489        2.3977076907
 H          7.3797967006        4.0837237186        0.5016153206
 H          6.5648496509        3.4586589285       -1.7405707295
 H          5.4769547805        1.2387848787       -2.0772915494
 H          3.2303494900       -1.0856009509       -1.7694509195
 H          3.3890367199        1.0161468595        1.1752425903
 H          1.4724962097        1.2964708700        2.7141808599
 H         -0.6353118905        0.0832934503        2.2970104597
 C         -1.2381717304       -1.6003337298        0.3293687398
 H         -1.5260793807       -2.0629516796        1.2843803298
 C         -1.2030472004       -2.6729495699       -0.7382683401
 C         -0.5671650107       -3.9975369700       -0.4424935098
 C         -2.0563524407       -3.8930676997       -0.5732923301
 H         -2.5282600806       -4.3138735898       -1.4485198801
 H         -2.6557012909       -3.9641397095        0.3224481798
 H         -0.0163643707       -4.4941702302       -1.2272404497
 H         -0.1515368809       -4.1415194900        0.5434874103
 H         -1.1029299602       -2.2695042101       -1.7395850601
 O         -3.4893211706       -1.1250378192        2.0098598093
