  62
        -98.93897347
 C          2.4678443563        1.0335540577        0.3701930964
 C          2.6274717111       -0.1742793507        1.1003078270
 C          3.9079840346       -0.8750027519        0.9430200527
 C          4.8543277297       -0.3380987883        0.1518828007
 C          6.1933205850       -0.9545236835       -0.1297843931
 C          6.1437481668       -1.8499033542       -1.3754270528
 C          4.9808906157       -2.8420998412       -1.3752855098
 H          4.0400664346       -2.2901696877       -1.4391048777
 H          5.0637088785       -3.4413064854       -2.2845798892
 C          4.9395420059       -3.7705180803       -0.1534893581
 H          4.7413858888       -4.7889649220       -0.4939971798
 H          5.9118222029       -3.7772586218        0.3404073953
 C          3.8553230504       -3.4256026621        0.8696094221
 H          3.7694672094       -4.2614643777        1.5692544921
 H          2.8911078003       -3.3238327714        0.3641991430
 C          4.0987338990       -2.1590147637        1.7001702254
 H          3.3596769666       -2.1434206806        2.5067544672
 H          5.0943243831       -2.1980078079        2.1472919342
 H          6.0490379084       -1.2119538825       -2.2569891932
 H          7.0877139369       -2.3929368284       -1.4478101209
 H          6.9117072382       -0.1507247162       -0.2989349854
 H          6.5081142842       -1.5343516786        0.7356577532
 O          4.6742712707        0.8230480863       -0.5221426649
 C          3.4833046482        1.5322021183       -0.4471449129
 O          3.4826619829        2.5633232404       -1.1474961831
 H         -1.3694833376        0.8324361718        0.7695431985
 C         -1.1050288248        1.0377140377       -0.2567047685
 C          0.1675350358        1.4984428384       -0.5644090235
 C          0.4897466754        1.7415997346       -1.8951330946
 C         -0.4424033977        1.5129653709       -2.8908630814
 C         -1.7086279747        1.0500038494       -2.5812779251
 C         -2.0469464628        0.8188405429       -1.2522133760
 N         -3.3500114171        0.4141593309       -0.9183247923
 S         -3.6466811457       -0.5262315604        0.4484347212
 O         -3.4780936733        0.2914686647        1.6231116074
 O         -2.8782203785       -1.7502503372        0.3952443889
 C         -5.3796615520       -0.8670419857        0.2053178898
 C         -6.2831667027        0.1535618575        0.4360458010
 C         -7.6319735260       -0.0860823272        0.2289660279
 C         -8.0532809526       -1.3356797597       -0.2017280856
 C         -7.1355734088       -2.3506264847       -0.4259060905
 C         -5.7842043351       -2.1168626279       -0.2225614048
 H         -5.0353393808       -2.8769276523       -0.3777414264
 H         -7.4664999465       -3.3217658165       -0.7570474326
 H         -9.1039063261       -1.5202200744       -0.3610235523
 H         -8.3486682084        0.6998693356        0.4046463055
 H         -5.9101843053        1.1044354616        0.7789965829
 H         -3.8675321233        0.0695575301       -1.7156183919
 H         -2.4336980643        0.8751832439       -3.3615700063
 H         -0.1787379445        1.6973494312       -3.9215040644
 H          1.4744871380        2.1088093498       -2.1393886637
 C          1.1495375657        1.7642187398        0.5524988641
 H          0.7167513761        1.3446986048        1.4719013372
 C          1.3081248957        3.2616431174        0.7425805198
 C          0.2164935356        4.0224852428        1.4305138023
 C          1.5304458502        3.8079028464        2.1191135767
 H          2.1971123651        4.6487563449        2.2374406147
 H          1.5684679831        3.1016023077        2.9360521371
 H         -0.0220259962        5.0133134571        1.0758268146
 H         -0.6381871251        3.4626734133        1.7811132296
 H          1.8238567688        3.7449500433       -0.0768796323
 O          1.7374571173       -0.6397743894        1.8642375301
