  62
        -98.94032506
 C          1.7877391027        0.6780391590        0.9216079296
 C          2.0332687708        0.3032435690       -0.4226256871
 C          3.4299968593        0.4192760303       -0.8733194037
 C          4.3695503946        0.8633903007       -0.0200218288
 C          5.8326115224        0.9769435112       -0.3341949105
 C          6.5814774631       -0.3086272880        0.0441264849
 C          5.9204538249       -1.5847874273       -0.4771087931
 H          6.5518266119       -2.4238080898       -0.1764217846
 H          4.9558389669       -1.7155662372        0.0189170293
 C          5.7150955388       -1.6185772254       -1.9980135778
 H          6.3579090981       -0.8777526166       -2.4749332015
 H          6.0196537598       -2.5991614528       -2.3699374321
 C          4.2693288806       -1.4009154786       -2.4487894321
 H          3.6082185741       -2.0790649007       -1.9029475770
 H          4.2015998383       -1.6613156509       -3.5084292577
 C          3.7286998569        0.0260240167       -2.2926764786
 H          4.4201571354        0.7346123337       -2.7529925981
 H          2.7747777235        0.0784647371       -2.8253459595
 H          7.6005209984       -0.2409718313       -0.3410630962
 H          6.6337352061       -0.3709434532        1.1336633585
 H          5.9568636194        1.1837870395       -1.3952896526
 H          6.2445750389        1.8086117150        0.2399639016
 O          4.0960294938        1.2132903799        1.2632092854
 C          2.8115971510        1.1056531543        1.7706275017
 O          2.7106445300        1.4116622341        2.9756703587
 H         -2.0277573351        0.0715077647        0.3044711315
 C         -1.4805598321       -0.8226926456        0.5488833475
 C         -0.2363766374       -0.7410892659        1.1514707700
 C          0.4470925493       -1.9233380456        1.4281182702
 C         -0.0925718694       -3.1482701076        1.0911741528
 C         -1.3411827731       -3.2247310511        0.4977765017
 C         -2.0370093296       -2.0539987096        0.2304041800
 N         -3.3059218500       -2.0850981205       -0.3696687116
 S         -4.5114410533       -1.1041058443        0.2522900876
 O         -4.3551878843       -0.9120432659        1.6758437171
 O         -5.7474145266       -1.7278056277       -0.1716641739
 C         -4.3364712098        0.4499479549       -0.5978292215
 C         -4.4102896434        1.6244324975        0.1245493852
 C         -4.3186180578        2.8329926106       -0.5479386162
 C         -4.1566519878        2.8449616025       -1.9250161664
 C         -4.0849825374        1.6562705263       -2.6356050825
 C         -4.1787427799        0.4449553861       -1.9694508601
 H         -4.1278532197       -0.4972175471       -2.4888219702
 H         -3.9552371982        1.6707565857       -3.7057301931
 H         -4.0827454262        3.7864522446       -2.4462781422
 H         -4.3717583564        3.7581387301        0.0040017192
 H         -4.5274246210        1.5679575413        1.1952313953
 H         -3.6526063935       -3.0097970304       -0.5801604279
 H         -1.7689419441       -4.1820479188        0.2402612774
 H          0.4566288591       -4.0542819833        1.3005559000
 H          1.4184354837       -1.8651764485        1.9019010928
 C          0.4024134663        0.5712462138        1.5353955010
 H          0.5752270609        0.5476756302        2.6249296514
 C         -0.4918619942        1.7726053818        1.2653365847
 C          0.0891809896        3.1306000253        1.0111434696
 C         -0.6020470103        2.3929476010       -0.0939836682
 H         -1.5704588497        2.7434371950       -0.4197544786
 H         -0.0039620153        1.9659388228       -0.8827746853
 H         -0.4031121745        3.9858528372        1.4489582057
 H          1.1656573370        3.2171358776        0.9784152433
 H         -1.3973697076        1.7438228745        1.8649306937
 O          1.1465285774       -0.1079830976       -1.2135514753
