  62
        -98.94591511
 C          1.3024789738        1.4196326004        0.6229638365
 C          2.3821003462        1.3127141956       -0.2884983326
 C          3.3748284535        0.2679864671        0.0110188505
 C          3.2164440182       -0.5103271270        1.0957793247
 C          4.1287357071       -1.6362995441        1.4874965783
 C          3.6825152974       -2.9721077196        0.8757632926
 C          3.3734721112       -2.8975343089       -0.6193367058
 H          3.0934234486       -3.9023654159       -0.9424201995
 H          2.5066092092       -2.2516203990       -0.7757943771
 C          4.5390856034       -2.3951476319       -1.4824237269
 H          5.4751137351       -2.4812827940       -0.9291705345
 H          4.6239280194       -3.0348054115       -2.3633554287
 C          4.3805876528       -0.9602961123       -1.9879272324
 H          5.1388048013       -0.7849505702       -2.7557484146
 H          3.4023817157       -0.8429815462       -2.4607721018
 C          4.5395121995        0.1387874239       -0.9300959196
 H          5.4673324235       -0.0151989143       -0.3752809336
 H          4.6079373862        1.0965022957       -1.4540649371
 H          2.7851322497       -3.3122285069        1.3978066928
 H          4.4699148793       -3.7078469505        1.0496471320
 H          5.1410037262       -1.3999443608        1.1645380100
 H          4.1175839995       -1.7231365230        2.5755245185
 O          2.1706727945       -0.3752958486        1.9519208662
 C          1.1982190283        0.5872662724        1.7405753129
 O          0.3039396018        0.6046223233        2.6113339752
 H         -2.2153169993        1.2712242968        0.8259092540
 C         -1.9733410661        1.3603321033       -0.2226116627
 C         -0.7794723208        1.9536136670       -0.6104379289
 C         -0.4962820761        2.0614193600       -1.9681403691
 C         -1.3929208021        1.5874110857       -2.9081077462
 C         -2.5774953182        0.9878269185       -2.5180490386
 C         -2.8678977347        0.8703159099       -1.1641018843
 N         -4.0656361054        0.2725423163       -0.7381726730
 S         -4.0477156995       -0.7928087094        0.5518694045
 O         -5.2762495724       -1.5440810499        0.4076738495
 O         -3.8902886143       -0.0725447373        1.7885019368
 C         -2.6517507130       -1.8567184165        0.2398814936
 C         -2.7857059118       -2.8162206273       -0.7459886025
 C         -1.7034231596       -3.6246079678       -1.0497167959
 C         -0.5060096523       -3.4574555713       -0.3697497485
 C         -0.3902550232       -2.4930238056        0.6179292315
 C         -1.4703203438       -1.6815716808        0.9292442263
 H         -1.3955133680       -0.9246507183        1.6945763909
 H          0.5356189948       -2.3539764529        1.1539710550
 H          0.3407574994       -4.0822772396       -0.6065328269
 H         -1.7929528685       -4.3796520603       -1.8139402348
 H         -3.7368307930       -2.9238726907       -1.2419022232
 H         -4.6445053293       -0.0783719601       -1.4876282106
 H         -3.2747510716        0.6161775912       -3.2533416393
 H         -1.1630581877        1.6789846637       -3.9587844693
 H          0.4402672048        2.4958419937       -2.2786752354
 C          0.1815153395        2.4346548483        0.4510832307
 H         -0.3601095672        2.4420894981        1.4069460563
 C          0.6864794318        3.8378040505        0.1800577671
 C         -0.2402873123        4.9935987970        0.4013146869
 C          0.9122883231        4.7674567432        1.3323040876
 H          1.7516313212        5.4454125225        1.2906253222
 H          0.7012780780        4.3959898550        2.3250415204
 H         -0.1948858326        5.8293417868       -0.2798282232
 H         -1.2339441845        4.7742304633        0.7632770675
 H          1.3820730759        3.8989868445       -0.6457785228
 O          2.5359528018        2.0448130508       -1.2999038889
