  62
        -98.94111491
 C          1.9833979665        0.9134374190       -0.1906263132
 C          2.3874267210        0.1780510499        0.9533052216
 C          2.5606460172       -1.2680420170        0.7812668957
 C          2.2880923950       -1.8192850941       -0.4148787531
 C          2.4377227061       -3.2762051933       -0.7441059423
 C          3.8356102268       -3.5839798280       -1.2988731727
 C          4.9732939506       -3.0107464504       -0.4539694805
 H          5.9115568977       -3.3136091302       -0.9235086109
 H          4.9294619653       -1.9200484323       -0.4942580741
 C          4.9645366826       -3.4638785503        1.0126156862
 H          4.3412131746       -4.3519303783        1.1218187038
 H          5.9807176329       -3.7423272940        1.2991880446
 C          4.4993019001       -2.3950407233        2.0033137450
 H          5.0557668376       -1.4701776370        1.8327089850
 H          4.7378740792       -2.7399298432        3.0128343069
 C          3.0011457043       -2.0658225357        1.9764719670
 H          2.4182009146       -2.9858373493        2.0580033088
 H          2.7796254819       -1.4423197344        2.8476748992
 H          3.9452782229       -4.6672418760       -1.3755472862
 H          3.9081616201       -3.1620855594       -2.3039314531
 H          2.2515846162       -3.8635646748        0.1532260702
 H          1.6888894751       -3.5335445061       -1.4955870508
 O          1.8865768545       -1.0919580602       -1.4859951878
 C          1.7129817721        0.2843918926       -1.4067057878
 O          1.3358453724        0.7949283386       -2.4802554706
 H         -0.5455073313        1.1665991347       -0.7948898757
 C         -0.7213457120        1.9090782351       -0.0310083668
 C          0.3316134050        2.6480412096        0.4852947792
 C          0.0579209606        3.6101624804        1.4513988371
 C         -1.2349762075        3.8107155590        1.8999453996
 C         -2.2748872046        3.0359869301        1.4182796281
 C         -2.0120998632        2.0763249246        0.4477755418
 N         -3.0316612336        1.2584189660       -0.0649144521
 S         -2.6401939331       -0.3584916937       -0.3785325922
 O         -1.7038747458       -0.8425367615        0.6110465158
 O         -2.2481333568       -0.4844556915       -1.7596842049
 C         -4.2328932605       -1.1284771792       -0.1423361974
 C         -4.5496710090       -1.6486237440        1.0984943439
 C         -5.7992341292       -2.2177170192        1.2881692724
 C         -6.7074845383       -2.2532601576        0.2406792204
 C         -6.3753797548       -1.7271597425       -0.9989718400
 C         -5.1270732722       -1.1579524404       -1.1958237105
 H         -4.8189361357       -0.7457369530       -2.1425972995
 H         -7.0825218380       -1.7590484009       -1.8119642287
 H         -7.6791139362       -2.6965518704        0.3907038554
 H         -6.0580992577       -2.6304715734        2.2498446166
 H         -3.8069496662       -1.6065383007        1.8791574171
 H         -3.9009122166        1.3418718735        0.4448823215
 H         -3.2794014889        3.1686041970        1.7901293084
 H         -1.4322806672        4.5603437555        2.6509372552
 H          0.8699526331        4.1884612399        1.8655975337
 C          1.7499021157        2.3979050199        0.0219203045
 H          2.4175843412        2.6849578485        0.8472951543
 C          2.0705000571        3.2685563778       -1.1765271397
 C          2.5181759487        4.6825669550       -0.9635414173
 C          3.4930563620        3.6526672996       -1.4477606688
 H          3.8264369207        3.6897394853       -2.4736442664
 H          4.2443459746        3.2968868083       -0.7576608369
 H          2.6195791281        5.0318364092        0.0524661827
 H          2.1796541496        5.4365117393       -1.6571562587
 H          1.4414787199        3.0611628972       -2.0326406797
 O          2.5999184837        0.7180983041        2.0739175812
