  62
        -98.94207817
 C         -1.2258002541       -0.9509011483        0.4548877415
 C         -1.7524292181       -0.6260956651       -0.8195590967
 C         -2.5990440419        0.5746211507       -0.8686562722
 C         -2.7988508498        1.3032780123        0.2444046748
 C         -3.6074564034        2.5685573178        0.3422048178
 C         -5.1133394275        2.3333515698        0.5232953653
 C         -5.8471978121        1.8264151567       -0.7188055646
 H         -5.6224801136        2.4777739395       -1.5641176883
 H         -6.9166737483        1.9134903281       -0.5168453151
 C         -5.5326047230        0.3704531018       -1.0902341107
 H         -6.4624514784       -0.1572556498       -1.3140273509
 H         -5.0770012052       -0.1338990621       -0.2349642250
 C         -4.6177086983        0.2089569413       -2.3043413554
 H         -5.1206394819        0.5903223986       -3.1959238569
 H         -4.4312831337       -0.8576527707       -2.4537870976
 C         -3.2606563995        0.9122483962       -2.1705946453
 H         -3.3848558302        1.9906879613       -2.2694040022
 H         -2.6111319982        0.5592116483       -2.9758703456
 H         -5.5589495360        3.2862585819        0.8180063040
 H         -5.2607006679        1.6293110314        1.3454638432
 H         -3.4381169307        3.1832943514       -0.5423543576
 H         -3.2377872692        3.1073838016        1.2171626300
 O         -2.2546019379        0.9703936850        1.4442969779
 C         -1.4853673812       -0.1741632739        1.5851264389
 O         -1.0909914668       -0.3867175901        2.7478976292
 O         -1.5213287653       -1.2847379116       -1.8671070828
 C         -0.3446369200       -2.1658957757        0.6508046318
 C          0.9913685829       -2.0489962331       -0.0483447770
 C          1.8809907523       -3.1203157901       -0.0474394419
 C          3.1284645544       -3.0095787652       -0.6342484366
 C          3.5184936304       -1.8313611258       -1.2485291458
 C          2.6332383690       -0.7660946055       -1.2705263951
 C          1.3907078865       -0.8721067741       -0.6613154812
 H          0.7246685278       -0.0192127550       -0.6708993853
 N          3.0323987581        0.4535441296       -1.8781576957
 S          3.9566791950        1.4138259079       -0.8612755895
 O          4.1113541950        2.6829516911       -1.5348003110
 O          5.1667886461        0.7009374833       -0.5443348777
 C          2.9496471081        1.6060954778        0.5979166166
 C          3.0323526467        0.6592814624        1.5992818801
 C          2.1686651126        0.7507107330        2.6785765633
 C          1.2369656884        1.7753786103        2.7349942545
 C          1.1645036156        2.7161348993        1.7192378531
 C          2.0240491019        2.6295990157        0.6358997747
 H          1.9991536928        3.3416314952       -0.1742102749
 H          0.4340379581        3.5084420190        1.7647976641
 H          0.5513615426        1.8247207681        3.5658740334
 H          2.2070638785        0.0152761178        3.4656043323
 H          3.7674018098       -0.1252305578        1.5173342322
 H          2.2453203040        0.9986842322       -2.2034174586
 H          4.4909142604       -1.7172841842       -1.6984401567
 H          3.8062670932       -3.8490658287       -0.6142950943
 H          1.5907243754       -4.0456337169        0.4242320791
 H         -0.1458321516       -2.2198222559        1.7316039773
 C         -1.0713828792       -3.4328889266        0.2304861354
 C         -0.9555957111       -4.6886326175        1.0391917618
 C         -2.2335119649       -3.9067594449        1.0493758294
 H         -3.0960836641       -4.3083293830        0.5392150218
 H         -2.4763637497       -3.3395610802        1.9367630298
 H         -0.9376669591       -5.6349234255        0.5200038876
 H         -0.3504818263       -4.6612819684        1.9331433564
 H         -1.1537411790       -3.5266958915       -0.8458480831
