  62
        -98.93554114
 C         -1.9963401904       -1.5151384356        0.0919210752
 C         -2.3367172272       -0.5464909698       -0.8802497313
 C         -3.6836984877        0.0587650429       -0.7784037941
 C         -4.4976429217       -0.3183588111        0.2239027288
 C         -5.8783660533        0.1847983893        0.5520892599
 C         -5.8624375681        1.5710105634        1.2153100614
 C         -4.9273113946        2.5842824834        0.5607940569
 H         -4.9317331304        3.4870400853        1.1775159205
 H         -3.9087671536        2.1915477587        0.5721450885
 C         -5.3016584338        2.9891102302       -0.8631366941
 H         -6.3108627867        3.4069236196       -0.8629449307
 H         -4.6143879622        3.7838754752       -1.1648284507
 C         -5.2338848626        1.8794818737       -1.9150837359
 H         -6.1029132243        1.2295738221       -1.8583640984
 H         -5.2709148152        2.3606953317       -2.8969055223
 C         -3.9534928760        1.0510808290       -1.8845990550
 H         -3.8887417604        0.4765582636       -2.8166023569
 H         -3.0908292736        1.7270241102       -1.9042657122
 H         -5.5432821747        1.4458123265        2.2529656591
 H         -6.8810969174        1.9625636204        1.2208504937
 H         -6.4977366716        0.1896713972       -0.3398530018
 H         -6.3121768576       -0.5307074603        1.2542281691
 O         -4.1201282051       -1.2441406206        1.1514562231
 C         -2.8881911114       -1.8615107001        1.1109054240
 O         -2.7025914949       -2.6976008365        2.0180070286
 H          0.1015710351        0.2788445995       -0.4129009084
 C          0.6692240822       -0.1491455293        0.4001648475
 C          0.3995100009       -1.4502104140        0.8033945800
 C          1.1441831528       -1.9917309127        1.8442452381
 C          2.1263384432       -1.2441771746        2.4715025094
 C          2.3905357640        0.0523897457        2.0689521080
 C          1.6559253287        0.6000426758        1.0244625133
 N          1.9291545280        1.9102187810        0.5928136046
 S          3.5347615691        2.3101772066        0.3353022732
 O          4.1564625315        2.6349172292        1.5952316155
 O          3.5140911223        3.3683581208       -0.6494403948
 C          4.2738570122        0.8332292078       -0.3395952268
 C          3.8157358843        0.3778580144       -1.5602042909
 C          4.3407456885       -0.7950163908       -2.0781681947
 C          5.3076089265       -1.4905839994       -1.3684073145
 C          5.7617053698       -1.0169951994       -0.1474590336
 C          5.2401075813        0.1554826999        0.3755069960
 H          5.5634604436        0.5582576306        1.3213794590
 H          6.5155493835       -1.5585602393        0.4007639829
 H          5.7077011377       -2.4072607576       -1.7716366943
 H          3.9868849323       -1.1656615412       -3.0267058921
 H          3.0637612078        0.9430108661       -2.0884082445
 H          1.3508672325        2.2066835185       -0.1799693679
 H          3.1455789771        0.6521647964        2.5506873791
 H          2.6918780004       -1.6748359506        3.2834173707
 H          0.9378569515       -3.0003432305        2.1710674122
 C         -0.6684244082       -2.2566030722        0.1107876671
 H         -0.8558019211       -3.1514921317        0.7244275238
 C         -0.2472311521       -2.7409948525       -1.2717212845
 C          0.9224943301       -2.1974524849       -2.0300689388
 C          0.9957770402       -3.5664963770       -1.4288367667
 H          0.9670303829       -4.4261753307       -2.0808007302
 H          1.6180843171       -3.6916255429       -0.5555716090
 H          0.8179746637       -2.1006565616       -3.0999684584
 H          1.5086143464       -1.4140568540       -1.5767421894
 H         -1.1050677977       -3.0383012682       -1.8669441225
 O         -1.5678330686       -0.1734283122       -1.8053680490
