  62
        -98.94803214
 C          1.2666864628        1.0449762285        0.0083874817
 C          1.6227416532       -0.0506348635        0.8297813382
 C          2.6590720405       -0.9446173355        0.2991845958
 C          3.1511514370       -0.7199661179       -0.9327915934
 C          4.2377504472       -1.5267549066       -1.5815276627
 C          5.6237788774       -0.9389660147       -1.2809322255
 C          5.8616902876       -0.6440502162        0.1999906170
 H          6.8802654061       -0.2620151810        0.2956404630
 H          5.1867760559        0.1544175216        0.5162307987
 C          5.6808611233       -1.8556077881        1.1250411076
 H          5.7236790556       -2.7764159614        0.5422128030
 H          6.5104217483       -1.8817597155        1.8347001305
 C          4.3914457471       -1.8377249062        1.9479184018
 H          4.2989575051       -0.8776484281        2.4617566176
 H          4.4661092748       -2.6140844053        2.7139766327
 C          3.0966138866       -2.0920082788        1.1654170531
 H          3.1939964421       -3.0048270877        0.5734070866
 H          2.2916984762       -2.2432585835        1.8911033141
 H          6.3800964390       -1.6386678137       -1.6412375401
 H          5.7309042359       -0.0054601823       -1.8381578706
 H          4.1802372574       -2.5541601330       -1.2265075097
 H          4.0733438587       -1.5175895178       -2.6605298185
 O          2.7405550199        0.3071494552       -1.7195253659
 C          1.7902240053        1.2146105103       -1.2729153515
 O          1.5045081226        2.1050592502       -2.0959648381
 H         -0.8360443837       -0.1690381879       -0.6052451476
 C         -1.4335158983        0.7023754992       -0.8235143146
 C         -1.0230097730        1.9472082455       -0.3675518699
 C         -1.7927469305        3.0569612520       -0.6940404738
 C         -2.9321518051        2.9139642277       -1.4671254545
 C         -3.3445330089        1.6687996514       -1.9061266026
 C         -2.5843214186        0.5517221244       -1.5793858460
 N         -2.9601761279       -0.7347955603       -1.9937043407
 S         -2.6858114895       -2.0358381997       -0.9790707759
 O         -1.2911922829       -2.4016054791       -0.9909063131
 O         -3.6052065848       -3.0502371153       -1.4506766909
 C         -3.1944111718       -1.4689618356        0.6345644580
 C         -4.5471677419       -1.2614089366        0.8293238629
 C         -4.9854067394       -0.7734877519        2.0486295913
 C         -4.0664078015       -0.4960353859        3.0498337655
 C         -2.7143580375       -0.7154631964        2.8414825972
 C         -2.2693339117       -1.2070718892        1.6236485710
 H         -1.2192702618       -1.3771215485        1.4430218403
 H         -1.9909360253       -0.5026803836        3.6125707726
 H         -4.4047872723       -0.1095110857        3.9982207375
 H         -6.0376557633       -0.6076901633        2.2140634004
 H         -5.2304902702       -1.5000532896        0.0305704538
 H         -3.8574453129       -0.7932256681       -2.4519141353
 H         -4.2366180873        1.5600969070       -2.5033733714
 H         -3.5143380042        3.7856921203       -1.7241834783
 H         -1.4958693950        4.0344353307       -0.3510711072
 C          0.2114063177        2.0177052818        0.4986588166
 H         -0.0689392766        1.6602734621        1.5019107667
 C          0.7832979632        3.4147879999        0.6222738350
 C          0.2831465191        4.3483231894        1.6829168392
 C          1.6465457330        3.7392151245        1.8036778648
 H          2.5115986119        4.3675746697        1.6536256832
 H          1.7965135136        2.9592957276        2.5361536354
 H          0.2137356827        5.4005907717        1.4517822451
 H         -0.4909817931        3.9874712464        2.3429979533
 H          1.0704706696        3.8311948001       -0.3365689019
 O          1.0943465488       -0.2710004715        1.9538063127
