  62
        -98.93674203
 C          2.3630087344        1.2903557183       -0.0977043213
 C          3.1350259648        0.5914622756        0.8589807832
 C          3.9790309770       -0.4965382459        0.3424833150
 C          3.9674527852       -0.7633106189       -0.9765752250
 C          4.7044478828       -1.8895059070       -1.6442248009
 C          3.9576903927       -3.2184919210       -1.4108466012
 C          4.7251992120       -4.2326490904       -0.5623421185
 H          4.0255816308       -5.0246460135       -0.2864114258
 H          5.5098423382       -4.6842488373       -1.1728291482
 C          5.3801994496       -3.6813467375        0.7078064733
 H          5.6502105405       -4.5409406043        1.3249062572
 H          6.3131710042       -3.1775455717        0.4511647294
 C          4.5214752191       -2.7252603408        1.5458948860
 H          4.7019976817       -2.9427330665        2.6007207767
 H          3.4606219005       -2.9012047954        1.3643482849
 C          4.8346242008       -1.2314479390        1.3372973463
 H          4.6752020192       -0.7068733427        2.2842254551
 H          5.8884358365       -1.1135718522        1.0703977497
 H          3.0002491561       -2.9944643468       -0.9352144432
 H          3.7286488098       -3.6809949048       -2.3720038459
 H          4.7491186583       -1.6612249644       -2.7091627411
 H          5.7189810414       -1.9467241383       -1.2563978162
 O          3.2035658541       -0.0749707281       -1.8637947655
 C          2.3783247500        0.9619816218       -1.4532397997
 O          1.7274439792        1.4947786870       -2.3701574524
 O          3.1142421134        0.8609406527        2.0918238131
 C          1.4602495481        2.4188999187        0.3650770921
 C          0.0189062159        2.0983197078        0.0512551106
 C         -0.8643556036        3.0123582378       -0.5072720192
 C         -2.1776495804        2.6536959736       -0.7596077044
 C         -2.6392610615        1.3854979966       -0.4606531161
 C         -1.7690655036        0.4676520959        0.1135214577
 C         -0.4564319485        0.8315995045        0.3693170319
 H          0.2197776292        0.1146207926        0.8202218535
 N         -2.2250010547       -0.8280563466        0.4154378094
 S         -3.6300497075       -0.9807145120        1.3238063842
 O         -3.8204803047        0.1541920212        2.1969712493
 O         -3.5259629811       -2.2741469833        1.9636187466
 C         -4.9250216300       -1.0390828291        0.1040341311
 C         -5.9709136008       -0.1392459386        0.1652463041
 C         -6.9723439991       -0.2104642839       -0.7907414996
 C         -6.9103244986       -1.1749965782       -1.7847371800
 C         -5.8540592224       -2.0728734816       -1.8305642725
 C         -4.8505494904       -2.0080464872       -0.8772838159
 H         -4.0151940064       -2.6883325928       -0.8752586863
 H         -5.8088896949       -2.8213867690       -2.6052013086
 H         -7.6898081486       -1.2279538604       -2.5283096226
 H         -7.7943778608        0.4862496180       -0.7568037049
 H         -5.9736647727        0.5968807737        0.9532336938
 H         -1.5045959917       -1.4346304892        0.7796163049
 H         -3.6586328801        1.1008449625       -0.6637314606
 H         -2.8506345794        3.3727424548       -1.2010500462
 H         -0.5239286368        4.0052812207       -0.7503802557
 H          1.5682264227        2.4495650097        1.4601403167
 C          1.9283646008        3.7408787957       -0.2057391989
 C          1.6933166796        5.0152998868        0.5470499070
 C          3.0755025980        4.4446967890        0.4530043090
 H          3.8011975980        4.9443188640       -0.1709168632
 H          3.5009620883        3.9825813476        1.3320771183
 H          1.4720018232        5.9115247675       -0.0125964240
 H          1.1815964469        4.9489381489        1.4953763691
 H          1.8808297031        3.7659461195       -1.2884906250
