  62
        -98.93756660
 C         -1.7901137428       -0.5183752820        0.3688616701
 C         -2.9263866852       -0.6227205720        1.2021050250
 C         -4.2294042948       -0.7313193237        0.5231057409
 C         -4.2654505480       -0.7317059679       -0.8210395444
 C         -5.4829093294       -0.7761223940       -1.7027158975
 C         -5.9299924754        0.6453518196       -2.0843411581
 C         -6.8834199411        1.3092893785       -1.0915334572
 H         -7.0157030829        2.3455764925       -1.4111229438
 H         -7.8589208567        0.8218903448       -1.1498669851
 C         -6.4196662221        1.3006238164        0.3674444976
 H         -5.3569144197        1.5448801215        0.4172189060
 H         -6.9572225363        2.0914077831        0.8945118303
 C         -6.6823019903       -0.0361373740        1.0767858272
 H         -7.2066148219        0.1504147940        2.0163911306
 H         -7.3522900084       -0.6388240672        0.4639010085
 C         -5.4276988169       -0.8507488996        1.4250520213
 H         -5.0612118454       -0.5494897154        2.4116465917
 H         -5.6999801994       -1.9085540228        1.5044524432
 H         -5.0327294945        1.2587989112       -2.2003963005
 H         -6.4271219438        0.6076199762       -3.0557416318
 H         -5.1887006569       -1.3036957458       -2.6122941097
 H         -6.2871043175       -1.3260199825       -1.2230836427
 O         -3.1437518506       -0.6336197726       -1.5867508046
 C         -1.8846678179       -0.5213612740       -1.0225958597
 O         -0.9549045617       -0.4353687301       -1.8458318796
 O         -2.8577308611       -0.6144487630        2.4618889926
 C         -0.4178226046       -0.4003826163        1.0040832761
 C          0.2705403761        0.8670965772        0.5616337529
 C         -0.4546554932        2.0553698445        0.5165740773
 C          0.1421303278        3.2339741343        0.1152826289
 C          1.4819332204        3.2590099022       -0.2306062563
 C          2.2198906884        2.0841318776       -0.1730924010
 C          1.6129042058        0.8978101965        0.2178106085
 H          2.2039237118       -0.0017701245        0.2556385794
 N          3.5765636134        2.0723819255       -0.5268038399
 S          4.6655178786        1.1573325727        0.3517454506
 O          4.3010502335        1.0881173056        1.7475078533
 O          5.9543161552        1.7511068928        0.0638363942
 C          4.6088284317       -0.4644384146       -0.3804606427
 C          4.7975523864       -1.5656117492        0.4310939476
 C          4.8040708094       -2.8283301114       -0.1409232402
 C          4.6222155603       -2.9667619485       -1.5081478858
 C          4.4354139192       -1.8504545124       -2.3092757817
 C          4.4328396276       -0.5850034147       -1.7445600768
 H          4.2853405584        0.3015647229       -2.3383788130
 H          4.2897414219       -1.9620052031       -3.3717222403
 H          4.6240513106       -3.9501491141       -1.9513994158
 H          4.9487497605       -3.6975386059        0.4811234162
 H          4.9225602117       -1.4129691190        1.4913643587
 H          3.9603584184        2.9708454353       -0.7807156984
 H          1.9510823284        4.1795576673       -0.5433887469
 H         -0.4374192135        4.1442582979        0.0772172028
 H         -1.4995627482        2.0404834747        0.7956489763
 H         -0.6004969525       -0.3260373828        2.0870936460
 C          0.3897722291       -1.6528535058        0.7330993451
 C          1.4179865778       -2.1227772901        1.7167874386
 C          0.1300017706       -2.8728309676        1.5633309697
 H          0.1492357415       -3.8384628274        1.0812285048
 H         -0.6098342214       -2.7897070949        2.3461474382
 H          2.3215828546       -2.5744218203        1.3361409298
 H          1.5639702301       -1.5325860959        2.6092265459
 H          0.5878070928       -1.7975393022       -0.3233056656
