  62
        -98.94227285
 C          2.4999423795        0.0191316622       -0.1402363922
 C          1.5379508029        0.3591983610        0.8407208617
 C          1.1220404583        1.7678669899        0.8859581030
 C          1.6351703657        2.6342969840       -0.0045824250
 C          1.1936603222        4.0583471114       -0.1839071375
 C         -0.1356389710        4.0820782932       -0.9675342146
 C         -1.3271499466        4.6211529415       -0.1753491637
 H         -1.2442599121        5.7080907285       -0.1025531399
 H         -2.2257570289        4.3940018788       -0.7534912245
 C         -1.4923792875        4.0636400954        1.2418184278
 H         -2.5059608053        4.3104777604        1.5646403416
 H         -0.8129213685        4.5821538661        1.9204177521
 C         -1.2819833155        2.5514879570        1.3930877369
 H         -2.0220228071        2.1717067103        2.1012086672
 H         -1.4588260463        2.0415003033        0.4449164153
 C          0.1076007319        2.1524592615        1.9267385534
 H          0.5082936333        2.9571210269        2.5494707776
 H         -0.0027125721        1.2664957434        2.5582608410
 H         -0.3557998786        3.0658311215       -1.3055307290
 H         -0.0181323161        4.6906707024       -1.8661262136
 H          1.0771368600        4.5376301631        0.7856310397
 H          1.9734301724        4.5777841562       -0.7416568786
 O          2.5659904913        2.2776312794       -0.9274373380
 C          2.9926012852        0.9647628574       -1.0405142766
 O          3.8016859592        0.7670095177       -1.9708337050
 H          0.7368147537       -0.9456936006       -1.8132713064
 C          0.6094999144       -1.8362537986       -1.2139529812
 C          1.6480709773       -2.2698448179       -0.3977434723
 C          1.4608179816       -3.4208686181        0.3553194705
 C          0.2542357283       -4.0993490313        0.3078693003
 C         -0.7951964621       -3.6308890723       -0.4610439000
 C         -0.6153377925       -2.4801318098       -1.2206965850
 N         -1.6582276854       -1.9322834166       -1.9977830735
 S         -2.2136562790       -0.4070395768       -1.5755066746
 O         -3.2509578737       -0.1061672973       -2.5397282966
 O         -1.1151450551        0.5225062231       -1.5169815390
 C         -2.9615935973       -0.6298937998        0.0295403529
 C         -2.1577330527       -0.8281773490        1.1341600226
 C         -2.7613594441       -1.0611436584        2.3609844873
 C         -4.1431782417       -1.0931338800        2.4633489883
 C         -4.9351906284       -0.8925258517        1.3425978191
 C         -4.3407050985       -0.6638871666        0.1125983919
 H         -4.9136516122       -0.5023646486       -0.7862535935
 H         -6.0101102561       -0.9155444795        1.4225705012
 H         -4.6041874263       -1.2743677120        3.4215721793
 H         -2.1375325191       -1.2160899455        3.2267768156
 H         -1.0833948266       -0.7908587536        1.0419373465
 H         -2.4527554454       -2.5486439398       -2.1039642563
 H         -1.7465518213       -4.1414740699       -0.4697586264
 H          0.1216363317       -4.9920211451        0.8998838302
 H          2.2490080871       -3.7745910275        0.9993931438
 C          2.9021352876       -1.4282436240       -0.3794804611
 H          3.3277225817       -1.4371693554       -1.3972633640
 C          3.9850761159       -1.9572680171        0.5477823430
 C          4.9512170483       -1.0238302554        1.2129427022
 C          3.9355624658       -1.7592220158        2.0318330976
 H          4.2784151266       -2.5633370874        2.6664872300
 H          3.0990952315       -1.2092000723        2.4313740312
 H          5.9867920842       -1.3219552298        1.2813144974
 H          4.8118330026        0.0357144393        1.0521353860
 H          4.3975487863       -2.8971204898        0.1936512130
 O          1.0317076208       -0.4721518622        1.6398019863
