  62
        -98.93438673
 C         -2.4043629436       -1.0864532173        0.0380830655
 C         -2.3854504599        0.3193745462        0.1836434509
 C         -3.6769007213        0.9591197511        0.4976848216
 C         -4.7702369875        0.1901791378        0.6429012105
 C         -6.1801046810        0.6423023584        0.9059441558
 C         -6.9539541594        0.8007688092       -0.4138701257
 C         -6.8163521218        2.1687441365       -1.0808861749
 H         -7.2980686788        2.1032050946       -2.0591287004
 H         -7.3636049266        2.9102533773       -0.4951660190
 C         -5.3799382995        2.6624393861       -1.2733119624
 H         -4.7516189964        1.8425317992       -1.6264278507
 H         -5.3889783811        3.4220439863       -2.0575233912
 C         -4.7752651164        3.2721201198        0.0002724646
 H         -5.5697784905        3.4370335476        0.7278500849
 H         -4.3589877230        4.2546176610       -0.2318320771
 C         -3.6455162844        2.4558316559        0.6465170995
 H         -2.6852142086        2.7553436861        0.2141095055
 H         -3.5936989738        2.6991511544        1.7131553888
 H         -6.6107500545        0.0209492354       -1.0984611211
 H         -8.0140626699        0.6237215498       -0.2219165705
 H         -6.6544204713       -0.1456706074        1.4944689187
 H         -6.1887494353        1.5634565027        1.4807124749
 O         -4.7381956548       -1.1648623398        0.5111221909
 C         -3.5691793208       -1.8346183373        0.2038416287
 O         -3.6898421419       -3.0730928618        0.1142932435
 H          1.4960884309       -1.0433530083       -0.6962378759
 C          1.2281005391       -1.1465876791        0.3408938910
 C         -0.0536831453       -1.5275615587        0.7044440699
 C         -0.3549192995       -1.6550104520        2.0582792192
 C          0.5968511703       -1.3835081129        3.0210512899
 C          1.8675245885       -0.9757935189        2.6543812260
 C          2.1839290793       -0.8596265985        1.3065509327
 N          3.4876055958       -0.4971065744        0.9144179404
 S          3.7186079928        0.6184064560       -0.3331037982
 O          3.1232732208        1.8911367227        0.0115840672
 O          3.3100691926        0.0305861515       -1.5823944573
 C          5.4976551404        0.7447991743       -0.2887109332
 C          6.2413893719       -0.2702794768       -0.8600580916
 C          7.6241872961       -0.1971353730       -0.8110778789
 C          8.2374083821        0.8837299853       -0.1947471868
 C          7.4781339950        1.8957481637        0.3726633047
 C          6.0942442659        1.8277460822        0.3281184785
 H          5.4636955365        2.5951237275        0.7479391541
 H          7.9576837302        2.7361979365        0.8481351179
 H          9.3139592859        0.9389722239       -0.1588631657
 H          8.2179474987       -0.9808584776       -1.2531988988
 H          5.7209745050       -1.0851951557       -1.3353272101
 H          4.0513014554       -0.2206239653        1.7085335226
 H          2.6083527510       -0.7518739790        3.4073467154
 H          0.3463879445       -1.4805935970        4.0669492063
 H         -1.3527504573       -1.9614646242        2.3436839257
 C         -1.1284377780       -1.8302624850       -0.3110727702
 H         -1.3724103577       -2.9010128436       -0.2423971349
 C         -0.7184127073       -1.5164933454       -1.7348358961
 C          0.0490645455       -2.5212010969       -2.5384888353
 C         -1.3869199736       -2.2413275918       -2.8625734730
 H         -1.6173032430       -1.6926383197       -3.7635342262
 H         -2.1256015763       -2.9857170830       -2.6020810607
 H          0.2866527738       -3.4616264384       -2.0645473485
 H          0.8114435308       -2.1618258327       -3.2133906077
 H         -0.4893948138       -0.4660989840       -1.8812761356
 O         -1.3420097603        1.0141288788        0.0531478818
