  62
        -98.94351551
 C          1.5079011581        1.5030799329       -0.0060378898
 C          2.1324996177        0.6218255469        0.9093463658
 C          3.1087766445       -0.3140652071        0.3371312405
 C          3.3491030465       -0.2855138598       -0.9864526973
 C          4.2444245365       -1.2460942945       -1.7130107817
 C          3.4547631736       -2.4690679282       -2.2025684858
 C          2.5765968033       -3.1122472803       -1.1282160753
 H          1.7858463266       -2.4127252343       -0.8451159532
 H          2.0902144023       -3.9780723368       -1.5830718917
 C          3.3356406094       -3.5529728702        0.1314063572
 H          2.9991221364       -4.5536432514        0.4102712970
 H          4.4024246408       -3.6201956287       -0.0849853367
 C          3.1193407282       -2.6513926617        1.3479968912
 H          3.5182673980       -3.1641513292        2.2269631649
 H          2.0491665104       -2.5023818801        1.5071630113
 C          3.7834241391       -1.2710363190        1.2790789897
 H          3.7087400887       -0.8171899723        2.2714196109
 H          4.8405214752       -1.3789448193        1.0288465256
 H          2.8117292943       -2.1570700695       -3.0292898702
 H          4.1626398575       -3.2067813567       -2.5848233636
 H          4.6752062341       -0.7340968773       -2.5750582085
 H          5.0484348701       -1.5607041137       -1.0506710378
 O          2.7472011693        0.5906674805       -1.8318538961
 C          1.8070257717        1.5026228743       -1.3685647161
 O          1.3188546214        2.2298037390       -2.2539970838
 H         -0.4758538852        0.2097648032       -0.6505601450
 C         -1.2255699712        0.9908221111       -0.6138941756
 C         -0.8994952857        2.2258395370       -0.0710654896
 C         -1.8887422972        3.2035498541       -0.0303656633
 C         -3.1586446518        2.9503652241       -0.5185078686
 C         -3.4737104343        1.7192223473       -1.0658450998
 C         -2.4926840168        0.7409015624       -1.1203113170
 N         -2.8194496246       -0.5294287511       -1.6589026320
 S         -3.6316761404       -1.5282338649       -0.5845698943
 O         -3.8067727706       -2.7921844618       -1.2621309384
 O         -4.8294913930       -0.8533741144       -0.1574303892
 C         -2.5026977301       -1.7195071739        0.7821060752
 C         -1.6639684122       -2.8158009917        0.8064183569
 C         -0.7217489385       -2.9168271288        1.8172628261
 C         -0.6187671666       -1.9118018167        2.7672806517
 C         -1.4651633852       -0.8150046774        2.7256503340
 C         -2.4199873864       -0.7148432033        1.7262795933
 H         -3.1005902845        0.1192788143        1.6670875442
 H         -1.3728237290       -0.0330466874        3.4618215752
 H          0.1300240795       -1.9751403657        3.5410734986
 H         -0.0685310447       -3.7743592390        1.8568459017
 H         -1.7719618015       -3.5699994329        0.0430589746
 H         -2.0128647203       -1.0253594124       -2.0128027675
 H         -4.4595963829        1.4966268979       -1.4392997747
 H         -3.9123958081        3.7214201789       -0.4738810335
 H         -1.6606881985        4.1695855102        0.3903069561
 C          0.4687409151        2.4692401150        0.5207754518
 H          0.4045577515        2.2615025352        1.6004306770
 C          0.9284325641        3.9034391838        0.3328719787
 C          0.6656270638        4.9382674212        1.3849189538
 C          2.0544593965        4.4160252634        1.1789125370
 H          2.7913436741        5.0600706972        0.7231558065
 H          2.4619659340        3.7426597767        1.9190045384
 H          0.4474677868        5.9478681552        1.0704690640
 H          0.1422300044        4.6287422668        2.2771215793
 H          0.9054496223        4.2125096321       -0.7059985360
 O          1.8776342936        0.6135566370        2.1425484450
