  62
        -98.94647541
 C          1.4309406958        1.5589140338       -0.4267240840
 C          1.2738571008        0.2393844385       -0.9200746031
 C          2.4723801476       -0.6100938201       -0.8614872653
 C          3.6391418197       -0.1076708617       -0.4211702153
 C          4.9612255503       -0.8261817799       -0.3823929696
 C          5.1817766842       -1.6859597080        0.8688126493
 C          4.3433181986       -2.9628045791        0.9302337696
 H          4.4706575968       -3.5264223403        0.0054747809
 H          4.7433093805       -3.5732670832        1.7422410314
 C          2.8498664336       -2.7180702845        1.1858681633
 H          2.7032680970       -1.7060741804        1.5712388395
 H          2.4902113786       -3.4007293433        1.9594339255
 C          1.9467124242       -2.9098897159       -0.0326361677
 H          0.9299730504       -2.6504626415        0.2749456404
 H          1.9558662561       -3.9609535831       -0.3327308950
 C          2.3237979663       -2.0504437953       -1.2469486374
 H          3.2425790205       -2.4238349762       -1.6999000807
 H          1.5164189086       -2.1160845504       -1.9803322792
 H          6.2374938324       -1.9661878191        0.8907119827
 H          4.9803238174       -1.0766983678        1.7529469886
 H          5.0623949809       -1.4478320066       -1.2726043320
 H          5.7326535522       -0.0533127576       -0.4078337701
 O          3.7581492960        1.1741238385        0.0162017524
 C          2.6597288894        2.0155608793        0.0597630587
 O          2.9066986047        3.1457598992        0.5292545089
 O          0.2111401099       -0.2233389266       -1.4106480779
 C          0.2966642577        2.5721010201       -0.3769662211
 C         -0.6142913108        2.3012099221        0.7963236472
 C         -0.6981073590        3.1975091601        1.8558050835
 C         -1.5385582630        2.9436632289        2.9252523294
 C         -2.3053303122        1.7927992937        2.9601136366
 C         -2.2250935863        0.8884121601        1.9068803939
 C         -1.3892749510        1.1508471167        0.8319098866
 H         -1.3138543016        0.4364544268        0.0294793916
 N         -3.0092122623       -0.2732870363        1.8905897027
 S         -2.4045036293       -1.6875500391        1.2261791449
 O         -3.2701824782       -2.7230525675        1.7584383511
 O         -0.9996026543       -1.8515913413        1.5180578272
 C         -2.7028437405       -1.5585488512       -0.5234674334
 C         -3.7025576773       -0.7284817235       -0.9891020385
 C         -3.9421775542       -0.6719361474       -2.3524748495
 C         -3.1888007662       -1.4464971903       -3.2208271744
 C         -2.1959866000       -2.2818495706       -2.7351737341
 C         -1.9492928577       -2.3411485378       -1.3733115211
 H         -1.1745815228       -2.9663425983       -0.9595569904
 H         -1.6061355931       -2.8804265726       -3.4109804444
 H         -3.3726195733       -1.3954626314       -4.2827189583
 H         -4.7114857036       -0.0192334190       -2.7333421764
 H         -4.2626371550       -0.1296548777       -0.2900562200
 H         -3.5439761833       -0.4494320841        2.7282788366
 H         -2.9582806043        1.5921766704        3.7960417570
 H         -1.5939119423        3.6462544149        3.7430844665
 H         -0.0875423317        4.0888801656        1.8425276476
 H          0.7781569910        3.5450734461       -0.2093768899
 C         -0.4931406137        2.6432326534       -1.6704443462
 C         -1.3023060526        3.8705703547       -1.9582918078
 C         -0.0569808657        3.5916336788       -2.7443247299
 H         -0.1522507101        3.2815133321       -3.7739514971
 H          0.8160970862        4.1983925208       -2.5510954556
 H         -2.2561937782        3.7539752584       -2.4487075367
 H         -1.2740103329        4.6698094505       -1.2330450503
 H         -0.8939381268        1.6884664446       -1.9835526189
