  62
        -98.93115070
 C         -1.6436005309       -1.4215123298        0.2452562907
 C         -2.3331629611       -0.7205473689        1.2644467000
 C         -3.4498573509        0.1429494109        0.8445565490
 C         -3.7250846505        0.2553518299       -0.4660483412
 C         -4.7563610102        1.1356462395       -1.1161227122
 C         -4.1394965999        2.4882694191       -1.5126059830
 C         -4.1766177201        3.5594763300       -0.4234881239
 H         -3.6058566199        4.4154725996       -0.7914115544
 H         -5.2077660701        3.8888856502       -0.2788384944
 C         -3.6031671405        3.1372777410        0.9317413666
 H         -3.3488031406        4.0446577414        1.4834983160
 H         -2.6717032206        2.5860996207        0.7830076773
 C         -4.5840668109        2.3033676217        1.7694792470
 H         -4.6610743311        2.7353407725        2.7694008566
 H         -5.5772558308        2.3705589715        1.3257685266
 C         -4.1974808111        0.8294369918        1.9547828782
 H         -3.5428438514        0.7341072524        2.8269037685
 H         -5.1000487312        0.2495963821        2.1758530484
 H         -4.6713771596        2.8747949685       -2.3844653435
 H         -3.1032054699        2.3111905488       -1.8146058126
 H         -5.0785454800        0.6207199489       -2.0236314819
 H         -5.6150443804        1.2709096301       -0.4653962125
 O         -3.0175299103       -0.4100025409       -1.4200998205
 C         -1.9654888305       -1.2561725708       -1.1023691495
 O         -1.4161554803       -1.7689490516       -2.0956447490
 H          0.2457513495        0.0598945995       -0.4301962299
 C          0.9842938894       -0.7106823108       -0.6081346991
 C          0.7718455391       -1.9959349804       -0.1245622181
 C          1.7592156291       -2.9477834907       -0.3535902871
 C          2.9162916793       -2.6216931113       -1.0400269171
 C          3.1115591296       -1.3429726017       -1.5293209180
 C          2.1248539497       -0.3904427415       -1.3224924490
 N          2.3347603700        0.9344738081       -1.8273734500
 S          2.4140106998        2.0868443891       -0.6094585808
 O          1.1559763496        2.2447024098        0.0943341187
 O          2.9117895401        3.2926078285       -1.2360251416
 C          3.6480861494        1.3635778197        0.4428121801
 C          3.2584100190        0.6636297706        1.5667776805
 C          4.2292407487        0.0416539611        2.3356903813
 C          5.5628337188        0.1286731007        1.9665894016
 C          5.9372589492        0.8369168498        0.8345285111
 C          4.9715103995        1.4591614893        0.0604497204
 H          5.2111460998        2.0220294786       -0.8264676900
 H          6.9756042793        0.9025081594        0.5524097814
 H          6.3141984886       -0.3593191889        2.5670406622
 H          3.9379889284       -0.5102251882        3.2150065116
 H          2.2096397189        0.6182874110        1.8168718602
 H          1.6441360902        1.2051106077       -2.5140755904
 H          4.0006125498       -1.0748660023       -2.0755807879
 H          3.6713468593       -3.3755162016       -1.1996800862
 H          1.6218543489       -3.9550257504        0.0039601336
 C         -0.4786412311       -2.2932709996        0.6693869017
 H         -0.2825972814       -1.9805597088        1.7100826715
 C         -0.8022789913       -3.7836383795        0.7222538728
 C         -2.1987203613       -4.2984239195        0.5449119728
 C         -1.1692626111       -4.5479943404       -0.5136167467
 H         -0.7876103111       -5.5510302906       -0.6339446458
 H         -1.2439996907       -3.9875232311       -1.4324925172
 H         -2.9801056712       -3.5820117696        0.3347448320
 H         -2.5195999616       -5.1236699690        1.1631761233
 H         -0.2034039416       -4.3113551490        1.4572119934
 O         -2.0164396215       -0.8049541780        2.4824106701
