  62
        -98.94702570
 C         -2.2093040485       -0.7418200190       -0.4954230059
 C         -1.4717507451        0.2674605116       -1.1592014075
 C         -1.9169438735        1.6506267985       -0.9324947837
 C         -2.9562793926        1.8894394172       -0.1144933417
 C         -3.4795197013        3.2498905870        0.2425836497
 C         -2.8070661285        3.7960205245        1.5092348262
 C         -1.2802434445        3.7130521909        1.4894057012
 H         -0.9181444105        4.1737998948        2.4117090508
 H         -0.9684348127        2.6656012605        1.5181075039
 C         -0.6200041610        4.3970102456        0.2842421147
 H         -1.3187245226        5.0965411375       -0.1774263407
 H          0.2353702194        4.9759327952        0.6391677694
 C         -0.0918733921        3.4236896994       -0.7711874224
 H          0.4999974478        2.6508583084       -0.2741089937
 H          0.5743542426        3.9733821372       -1.4420325431
 C         -1.1598817166        2.7416940702       -1.6365723401
 H         -1.8468740664        3.4922702204       -2.0337165203
 H         -0.6521438800        2.2618126687       -2.4782496208
 H         -3.1132206613        4.8360464705        1.6396130936
 H         -3.1683879266        3.2250751062        2.3679165999
 H         -3.3102042100        3.9282805482       -0.5914504578
 H         -4.5534281526        3.1676557208        0.4202841284
 O         -3.6388161928        0.8988180427        0.5148570421
 C         -3.2762682618       -0.4259064389        0.3513117104
 O         -3.9827717312       -1.2293194787        0.9951368626
 H          0.5709343058       -1.1370109607       -0.2301790000
 C          0.3612275347       -1.8937978988        0.5057772169
 C         -0.8459366517       -2.5773864502        0.4625266714
 C         -1.0939610307       -3.5602904068        1.4125963035
 C         -0.1605483081       -3.8367258728        2.3959495191
 C          1.0173165037       -3.1163440141        2.4673381302
 C          1.2755143253       -2.1299075150        1.5204710181
 N          2.4550392897       -1.3742500204        1.5810553179
 S          2.4528041447        0.2881334758        1.3112964199
 O          3.2988814207        0.8289964355        2.3580318826
 O          1.1120613359        0.8125152150        1.2454842497
 C          3.3213429082        0.4480139946       -0.2358314971
 C          4.7030213396        0.4270769688       -0.1830359340
 C          5.4254323623        0.5216874864       -1.3602214599
 C          4.7572362894        0.6350573763       -2.5704628666
 C          3.3724006501        0.6558844708       -2.6066576628
 C          2.6418302182        0.5603008860       -1.4310118199
 H          1.5625924014        0.5692690474       -1.4475311741
 H          2.8463977350        0.7423470824       -3.5441107379
 H          5.3174440322        0.7089771366       -3.4893482106
 H          6.5031007848        0.5071802346       -1.3316162865
 H          5.1802665181        0.3524913098        0.7800751441
 H          3.0439878603       -1.5970552049        2.3705178548
 H          1.7316861541       -3.3077357910        3.2542052616
 H         -0.3625193050       -4.6035174283        3.1286357162
 H         -2.0334599703       -4.0928331477        1.3907463055
 C         -1.8814066191       -2.2260344519       -0.5802177884
 H         -2.8099249945       -2.7509305495       -0.3152989760
 C         -1.4476638503       -2.6903772944       -1.9560743192
 C         -1.6340175555       -4.1298627099       -2.3267724045
 C         -2.4885998423       -3.0750446932       -2.9619634909
 H         -2.3199687637       -2.8237958941       -3.9981255381
 H         -3.5239097318       -3.0067541598       -2.6599508433
 H         -2.0925838714       -4.7807730503       -1.5977484028
 H         -0.8756809123       -4.6076858373       -2.9275452306
 H         -0.5649149768       -2.1852055506       -2.3233613179
 O         -0.4902715676        0.0527970292       -1.9196764093
