  62
        -98.94541988
 C         -1.4595542244       -1.3054430111       -0.5495896959
 C         -2.7840744542       -1.3410317057       -0.0389395102
 C         -3.7005477814       -0.3047899155       -0.5227689063
 C         -3.2649041659        0.6024345270       -1.4150471052
 C         -4.0774104386        1.7189113204       -2.0127988293
 C         -4.1471905561        2.9742056205       -1.1324529121
 C         -5.0315491994        2.8488495776        0.1089864394
 H         -5.1684635189        3.8562379696        0.5071362062
 H         -6.0143868314        2.4769284799       -0.1825198198
 C         -4.4486105949        1.9576578937        1.2149044025
 H         -3.3776261526        1.8185043965        1.0448951544
 H         -4.5535382307        2.4596287018        2.1795945725
 C         -5.1143180236        0.5871603080        1.3428673257
 H         -4.5965256989        0.0285266779        2.1267639130
 H         -6.1551701847        0.7133992214        1.6491388909
 C         -5.0803286135       -0.2542398334        0.0605948831
 H         -5.7871055392        0.1415055658       -0.6684217387
 H         -5.3715839729       -1.2765493319        0.3139113483
 H         -3.1321482045        3.2462932781       -0.8313822978
 H         -4.5387896419        3.7853481700       -1.7508958899
 H         -5.0866866820        1.3655343630       -2.2262903043
 H         -3.5943246478        1.9858354398       -2.9551989465
 O         -1.9996079319        0.5882964342       -1.9051030067
 C         -1.0585259750       -0.3373030190       -1.4706479799
 O          0.0563479432       -0.1889964924       -2.0062804393
 O         -3.1843500255       -2.2111017186        0.7804256413
 C         -0.5001498897       -2.3457596306        0.0073391716
 C          0.2032813205       -1.7679696918        1.2136398772
 C         -0.0850536111       -2.2399937085        2.4886791430
 C          0.5222856090       -1.6800703247        3.5984213883
 C          1.4186750273       -0.6378675770        3.4551553632
 C          1.7152044038       -0.1568863265        2.1827682552
 C          1.1185908467       -0.7332025292        1.0708473896
 H          1.3303287045       -0.3429648641        0.0896376500
 N          2.6365607401        0.8837569384        2.0267050242
 S          2.6113201870        1.9510117169        0.7378523905
 O          3.3196834139        3.1108910887        1.2424850688
 O          1.2704744194        2.1910748611        0.2604448298
 C          3.6414169352        1.1511038846       -0.4733527341
 C          4.9765732320        1.0006925298       -0.1478413245
 C          5.8225178313        0.3770125275       -1.0488369673
 C          5.3214997155       -0.0846073341       -2.2573666067
 C          3.9812321049        0.0770160817       -2.5692703304
 C          3.1273732619        0.7025340678       -1.6718977005
 H          2.0764079423        0.8239845540       -1.8857418564
 H          3.5855282513       -0.2828896610       -3.5058312632
 H          5.9781382469       -0.5728908593       -2.9602590446
 H          6.8658569903        0.2510193188       -0.8083221512
 H          5.3249950297        1.3833998657        0.7969367555
 H          2.9432245568        1.3212531869        2.8823461069
 H          1.8846334143       -0.1908675290        4.3201727962
 H          0.2879482947       -2.0514220573        4.5846147802
 H         -0.8086384184       -3.0332621665        2.6057551675
 H         -1.1417017597       -3.1649349928        0.3609120098
 C          0.4822228789       -2.9088114427       -0.9976035500
 C          1.1258711723       -4.2318161511       -0.7126602342
 C          0.0998958298       -4.1155169641       -1.7988629279
 H          0.4233038191       -4.1725237800       -2.8271886057
 H         -0.8775795298       -4.5419372422       -1.6257423168
 H          2.1583895381       -4.3710544041       -0.9930437094
 H          0.8436895942       -4.7395683687        0.1972704019
 H          1.0792148138       -2.1559343320       -1.4937989997
