  62
        -98.93581360
 C         -2.2464708701       -0.1680460401        0.3475087993
 C         -3.3553942502       -0.7590533799       -0.3092638207
 C         -4.4524168401        0.1581578802       -0.6552983305
 C         -4.3440466600        1.4719854101       -0.3933014304
 C         -5.3639025099        2.5297645102       -0.7178834803
 C         -6.4794134399        2.6638010002        0.3278913198
 C         -7.4986406800        1.5237649903        0.3419704397
 H         -8.3355010999        1.8504179603        0.9624229898
 H         -7.8822097200        1.3686415604       -0.6668347703
 C         -6.9592455600        0.1989534102        0.8990470196
 H         -7.6816342400       -0.2215064298        1.6023805096
 H         -6.0402499700        0.3872065501        1.4592226796
 C         -6.6831985202       -0.8682236197       -0.1601543005
 H         -7.6207136202       -1.1611716796       -0.6377537805
 H         -6.2699704802       -1.7481056698        0.3393797194
 C         -5.6944741802       -0.4346516897       -1.2501803705
 H         -5.3999144603       -1.3205714797       -1.8177520206
 H         -6.1682976702        0.2750938904       -1.9276755604
 H         -7.0106354898        3.5953266203        0.1192654599
 H         -6.0218920898        2.7566721101        1.3156793498
 H         -5.8024225600        2.3282139504       -1.6956097603
 H         -4.8223914099        3.4768990902       -0.7674790602
 O         -3.2439979999        2.0083072900        0.2019664996
 C         -2.1917019600        1.2042388799        0.6054902595
 O         -1.2720116699        1.8226753798        1.1818001095
 O         -3.4458483103       -1.9770786099       -0.6041297108
 C         -1.0412956601       -0.9635152402        0.8210806992
 C         -0.0054478402       -1.0895571802       -0.2669690009
 C         -0.3485734203       -1.5094877201       -1.5485342809
 C          0.6194677397       -1.6210357000       -2.5294015209
 C          1.9408260597       -1.3168293802       -2.2542044410
 C          2.2961781798       -0.9037392003       -0.9751064510
 C          1.3215109798       -0.7911821403        0.0071286591
 H          1.6047242099       -0.4470836304        0.9905190491
 N          3.6416330298       -0.6414383504       -0.6628628610
 S          4.0160267800        0.5930827094        0.4267547291
 O          3.7468302000        0.1283395793        1.7639816591
 O          3.3736510000        1.8245057195        0.0253240692
 C          5.7782992600        0.7009207793        0.1766007990
 C          6.5859297299       -0.2590711708        0.7571196689
 C          7.9542510799       -0.1991826209        0.5471697188
 C          8.4897350500        0.8138772192       -0.2346199411
 C          7.6672009700        1.7717359293       -0.8080258210
 C          6.2971783600        1.7165422294       -0.6036193809
 H          5.6194962900        2.4434776195       -1.0219738208
 H          8.0863690400        2.5600083893       -1.4123170409
 H          9.5552643899        0.8589485991       -0.3954158411
 H          8.5972928599       -0.9402789709        0.9937480987
 H          6.1259763999       -1.0210411208        1.3642946488
 H          4.2223713698       -0.5774354504       -1.4886465610
 H          2.6936462697       -1.4022990201       -3.0230805710
 H          0.3412108396       -1.9447111599       -3.5211170210
 H         -1.3779037903       -1.7524115500       -1.7632377009
 H         -0.5935652300       -0.3565399903        1.6254636992
 C         -1.4194284402       -2.3081102802        1.4303377791
 C         -1.1024439303       -3.6250367102        0.7951821590
 C         -0.3517754002       -3.1859287904        2.0138669290
 H         -0.5457927102       -3.6815300305        2.9531229589
 H          0.6727183198       -2.8678245404        1.8859298889
 H         -1.8349516104       -4.4118535102        0.8894899589
 H         -0.5852122504       -3.6235640702       -0.1509103211
 H         -2.3546468002       -2.2519901602        1.9784290791
