  62
        -98.94091083
 C         -1.1455040965       -1.2501520896        0.0483502404
 C         -1.5869746164       -0.1888183797        0.8724529924
 C         -2.7152613021        0.6038927433        0.3643125570
 C         -3.2148253885        0.3229335689       -0.8529500275
 C         -4.4018592827        0.9938047457       -1.4840616938
 C         -5.7063570060        0.4575897955       -0.8603343772
 C         -6.5022056071        1.4978343811       -0.0719104898
 H         -7.0101219405        2.1626845551       -0.7736519093
 H         -7.2702060078        0.9640072749        0.4917567368
 C         -5.6899257173        2.3673422515        0.8924404557
 H         -6.4042505192        2.8602127534        1.5553950700
 H         -5.1841941355        3.1586800634        0.3368833766
 C         -4.6520659870        1.6291111063        1.7474650797
 H         -4.6626865821        2.0676196916        2.7473679484
 H         -4.9217386804        0.5785551139        1.8574085225
 C         -3.2046930573        1.7313947108        1.2307566062
 H         -3.0672959324        2.6799533821        0.7028645670
 H         -2.5269076464        1.7378968533        2.0899044553
 H         -5.4532713948       -0.3805858408       -0.2078542988
 H         -6.3486505203        0.0601801939       -1.6475975561
 H         -4.3259893116        2.0711828061       -1.3526562143
 H         -4.3698757444        0.7713136862       -2.5509754864
 O         -2.7326891834       -0.6753759883       -1.6379421338
 C         -1.6834570488       -1.4799888256       -1.2170049913
 O         -1.3336696401       -2.3424543056       -2.0448755476
 H          0.8165228579        0.1785782768       -0.5922700059
 C          1.4891245182       -0.6289758780       -0.8363742134
 C          1.2135969462       -1.9118045248       -0.3839766285
 C          2.0777705852       -2.9386454802       -0.7435132863
 C          3.1765531897       -2.6788853030       -1.5445520539
 C          3.4552025801       -1.3955436987       -1.9788046220
 C          2.5999151863       -0.3604847755       -1.6189130537
 N          2.8402174027        0.9614862462       -2.0231526140
 S          2.4815985270        2.2105752575       -0.9692251611
 O          1.0609838848        2.4551666304       -0.9397313278
 O          3.2978838147        3.3119563411       -1.4357994616
 C          3.0777334301        1.6495245543        0.6163060731
 C          4.4472738666        1.5391145282        0.7679025257
 C          4.9564723954        1.0582540909        1.9622119976
 C          4.0905983922        0.6909770628        2.9816360446
 C          2.7204125243        0.8133371828        2.8164875123
 C          2.2041041064        1.2971773819        1.6239269536
 H          1.1393745579        1.3909237461        1.4761550051
 H          2.0381430214        0.5293632323        3.6020060585
 H          4.4846165398        0.3093354300        3.9103064631
 H          6.0225415554        0.9673049164        2.0938418996
 H          5.0873302766        1.8448742290       -0.0436974417
 H          3.7153502843        1.1102192495       -2.5033556945
 H          4.3167300438       -1.1951176749       -2.5968502665
 H          3.8328895823       -3.4877587285       -1.8270878875
 H          1.8863577671       -3.9433183185       -0.4042609573
 C          0.0156505914       -2.1078913638        0.5135999530
 H          0.2826323475       -1.7195569596        1.5088620596
 C         -0.4045088953       -3.5561671937        0.6532069941
 C          0.2241696158       -4.4298982249        1.6962956309
 C         -1.1908723391       -3.9663314961        1.8612809986
 H         -1.9896265320       -4.6821624423        1.7380070473
 H         -1.3985790005       -3.2046282378        2.5987453645
 H          0.9773305214       -3.9884452243        2.3311290222
 H          0.3958249730       -5.4696483486        1.4618955956
 H         -0.6770398722       -4.0022172311       -0.2964922350
 O         -1.0560648398        0.0853690353        1.9836163403
