  62
        -98.93891553
 C         -1.8074312018       -0.9947974358       -0.1842481422
 C         -2.9595982277       -1.0784641858        0.6386985120
 C         -4.1929592495       -0.4286835001        0.1574512953
 C         -4.1676169234        0.1961204324       -1.0340940741
 C         -5.2743992247        0.9536807539       -1.7179219994
 C         -5.5105773458        2.3415249680       -1.1012281278
 C         -5.5267331959        2.3715530204        0.4248244185
 H         -5.5980627425        3.4174831664        0.7350781027
 H         -4.5766538453        1.9877580130        0.8013901412
 C         -6.6779087668        1.6107355866        1.0786537361
 H         -7.6258211941        2.0189733492        0.7209474521
 H         -6.6204544543        1.7991536977        2.1538042153
 C         -6.6879762796        0.0955650608        0.8632805505
 H         -7.0608911979       -0.1587617913       -0.1252641481
 H         -7.3964626570       -0.3294665520        1.5802664718
 C         -5.3495485015       -0.5918994189        1.1137201322
 H         -5.5206549676       -1.6727485882        1.1860153491
 H         -4.9721159979       -0.2950579903        2.0989532888
 H         -6.4536292520        2.7338441333       -1.4855947889
 H         -4.7079718079        3.0023475720       -1.4383179025
 H         -6.1882097547        0.3670643074       -1.7122215211
 H         -4.9689253944        1.0834708118       -2.7586019119
 O         -3.0397106353        0.2499169783       -1.7953424615
 C         -1.8436382504       -0.3239394626       -1.4056001021
 O         -0.9236934381       -0.1582362497       -2.2337583032
 O         -2.9632492730       -1.6806772914        1.7459429580
 C         -0.5518758781       -1.6765100576        0.3327322559
 C          0.4115547127       -0.6888165482        0.9457237867
 C          0.7751368184       -0.7786018024        2.2839701701
 C          1.6862084607        0.1096385839        2.8298386271
 C          2.2530394197        1.1036685676        2.0527739114
 C          1.8893945054        1.2048937992        0.7162543144
 C          0.9821765111        0.3101935200        0.1696396970
 H          0.7035647673        0.3966414873       -0.8701046529
 N          2.4768561100        2.2035574006       -0.0905204047
 S          4.1467080812        2.1021338661       -0.2201563453
 O          4.7470323417        2.6505060381        0.9700945625
 O          4.4869921758        2.7591218977       -1.4620523133
 C          4.4705913204        0.3508775625       -0.3138159306
 C          4.9783093406       -0.3130144906        0.7841694754
 C          5.1410269802       -1.6873664877        0.7182442864
 C          4.7898535855       -2.3699825675       -0.4357260121
 C          4.2818893898       -1.6880373798       -1.5308181262
 C          4.1155368279       -0.3143952174       -1.4703437356
 H          3.7245408100        0.2479755526       -2.3036086781
 H          4.0087475368       -2.2195409459       -2.4285516471
 H          4.9132651163       -3.4405671490       -0.4829677402
 H          5.5352812606       -2.2214285501        1.5675293579
 H          5.2373818710        0.2569493155        1.6611067310
 H          2.0649761503        2.2459130157       -1.0125032527
 H          2.9709891501        1.8000655025        2.4551391974
 H          1.9582963676        0.0269390269        3.8708965944
 H          0.3299905691       -1.5458765224        2.9001942744
 H         -0.9001353366       -2.3437786522        1.1322143509
 C          0.1546739978       -2.5117614184       -0.7183567743
 C          1.0824006123       -3.6016762151       -0.2764986019
 C         -0.2354726032       -3.9462756655       -0.9016477157
 H         -0.2458519594       -4.3524816130       -1.9019596640
 H         -1.0169086758       -4.3366098502       -0.2659044602
 H          1.9824267251       -3.7707434307       -0.8462352577
 H          1.1964219144       -3.7605829718        0.7847962378
 H          0.4196792722       -1.9516633159       -1.6053818665
