  62
        -98.93665271
 C          1.7015276122        1.5479083340        0.1954366000
 C          1.4673386439        0.2083820574       -0.2044143067
 C          2.4787943002       -0.7719826227        0.2267637287
 C          3.5265864934       -0.3704842604        0.9669492393
 C          4.6534170345       -1.2536395823        1.4168534261
 C          5.8020569772       -1.2509827991        0.3983237134
 C          5.3510032912       -1.4915925925       -1.0424183985
 H          4.7398578427       -0.6474880780       -1.3701825910
 H          6.2474752856       -1.4996549846       -1.6663718154
 C          4.5685510564       -2.7952464162       -1.2536149916
 H          4.7429313024       -3.4710969116       -0.4156998012
 H          4.9470449384       -3.2885079991       -2.1514407444
 C          3.0629715186       -2.6062672096       -1.4489664320
 H          2.8862635421       -1.8590355157       -2.2265214906
 H          2.6460525574       -3.5523150630       -1.8038096438
 C          2.2734832038       -2.1983525515       -0.1987770342
 H          1.2090586074       -2.2876254453       -0.4332578330
 H          2.5071508604       -2.8802446652        0.6208279266
 H          6.5229490287       -2.0174327363        0.6888363417
 H          6.3024880098       -0.2807685326        0.4426465820
 H          5.0258586455       -0.8767633744        2.3709265329
 H          4.2816610221       -2.2665679142        1.5574879077
 O          3.7034629302        0.9186260253        1.3541841913
 C          2.8088492846        1.9010053919        0.9743129606
 O          3.1007742184        3.0420706634        1.3879750157
 H         -1.3080135556        1.3549656916       -1.4957695245
 C         -1.5601016859        1.6955342832       -0.5072598127
 C         -0.6358082980        2.3897742514        0.2586495172
 C         -1.0076766460        2.7593097371        1.5503367810
 C         -2.2567036542        2.4483441928        2.0543947003
 C         -3.1737661330        1.7564331710        1.2828274821
 C         -2.8131959047        1.3725660001       -0.0011270928
 N         -3.7272834905        0.6648224226       -0.8073747774
 S         -4.3882344311       -0.7608319673       -0.2366363345
 O         -5.1037220774       -1.3199162523       -1.3610644344
 O         -5.1734044334       -0.4768452513        0.9388042949
 C         -3.0190337631       -1.8192877315        0.1924834523
 C         -2.6179586843       -2.7840607466       -0.7092047489
 C         -1.5511709523       -3.6046109855       -0.3835104896
 C         -0.8991535686       -3.4380692942        0.8282748854
 C         -1.3046743200       -2.4545349017        1.7166458262
 C         -2.3766574095       -1.6362816378        1.4003467645
 H         -2.7239662288       -0.8685723968        2.0725766410
 H         -0.7875417710       -2.3197823920        2.6534408349
 H         -0.0692989336       -4.0784255631        1.0830097912
 H         -1.2284455434       -4.3664234170       -1.0751300921
 H         -3.1561626234       -2.8817675412       -1.6384101189
 H         -3.3849840788        0.5124328571       -1.7459441618
 H         -4.1487461604        1.4949513167        1.6611413431
 H         -2.5205380346        2.7481198586        3.0575180880
 H         -0.2947544267        3.2898083063        2.1666405488
 C          0.7740076563        2.7028029080       -0.1742155533
 H          1.1129211223        3.5328156144        0.4640353101
 C          1.0323196660        3.1767833255       -1.6006251502
 C          0.7412421254        2.3924212027       -2.8437733224
 C         -0.0346329300        3.6403374917       -2.5454495435
 H          0.1647562157        4.5171543713       -3.1435617909
 H         -1.0632668181        3.5492731092       -2.2339936495
 H          0.2721982925        1.4273734963       -2.7448850387
 H          1.4754048705        2.4267754047       -3.6368007482
 H          1.9630965002        3.7386439607       -1.6270881673
 O          0.4826987840       -0.1746735277       -0.8853734151
