  62
        -98.93943655
 C          2.2655946306        0.5432009907       -0.3216562907
 C          3.3929906707        0.7994562415        0.5037015189
 C          4.2098095312       -0.3611745880        0.8772972293
 C          3.8458386216       -1.5829812783        0.4480185299
 C          4.6101835421       -2.8480669379        0.7068423704
 C          5.6239690720       -3.1230314180       -0.4127099697
 C          6.4982525915       -1.9190211379       -0.7632847905
 H          7.1939866614       -2.2381909980       -1.5422987005
 H          5.8703252511       -1.1360844283       -1.1946762107
 C          7.2864664415       -1.3402944670        0.4200758491
 H          7.3322253019       -2.0712770166        1.2281306094
 H          8.3121584813       -1.1489807567        0.0977158488
 C          6.7368871211       -0.0196975469        0.9627679786
 H          6.6014248206        0.6866888426        0.1398363683
 H          7.4821957711        0.4063227337        1.6396965282
 C          5.4166969213       -0.1145855971        1.7381017989
 H          5.4992124018       -0.8791011967        2.5133594793
 H          5.2460512010        0.8504408531        2.2241472285
 H          6.2569517324       -3.9581973676       -0.1075380894
 H          5.0766502619       -3.4210942787       -1.3099221794
 H          5.1224538723       -2.7667251972        1.6635434202
 H          3.9003360625       -3.6755095982        0.7538203209
 O          2.7504807015       -1.7950679091       -0.3213935397
 C          1.9373776410       -0.7487017796       -0.7325105300
 O          0.9827632010       -1.1194071104       -1.4451843497
 H         -0.7428557893        0.1168603193       -0.7413213499
 C         -0.8506850495        0.9182502696       -0.0255460302
 C          0.1776391302        1.8384608901        0.1211012291
 C          0.0344033300        2.8499082705        1.0638160886
 C         -1.1089775599        2.9337641304        1.8390564388
 C         -2.1278703896        2.0092745299        1.6967861195
 C         -1.9917645494        0.9907779795        0.7619089700
 N         -2.9985744090        0.0128122591        0.6311096807
 S         -4.5918337792        0.5507170884        0.4788822007
 O         -4.6949965299        1.5254789578       -0.5853110197
 O         -5.0516009691        0.9864587888        1.7737918806
 C         -5.4140522587       -0.9618839122        0.0240055116
 C         -5.7616562889       -1.1806333829       -1.2949817482
 C         -6.3786401785       -2.3742083933       -1.6358324975
 C         -6.6312243980       -3.3244086130       -0.6580861770
 C         -6.2757717478       -3.0899888922        0.6621232628
 C         -5.6608549482       -1.8980936918        1.0100721221
 H         -5.3750241880       -1.6692270012        2.0233439820
 H         -6.4755549473       -3.8308738019        1.4193779632
 H         -7.1102281877       -4.2527786033       -0.9265170664
 H         -6.6585159087       -2.5581905239       -2.6606208273
 H         -5.5507810894       -0.4113732432       -2.0206572986
 H         -2.7789945689       -0.6371499212       -0.1127208491
 H         -3.0246476094        2.0654538499        2.2921204397
 H         -1.2079519300        3.7263673207        2.5655525385
 H          0.8328768297        3.5661683709        1.1940384881
 C          1.4278762400        1.7469049002       -0.7220433211
 H          2.0515430197        2.6186944305       -0.4826619517
 C          1.1042794697        1.7842010393       -2.2027522911
 C          0.7085028290        3.0876443989       -2.8264351216
 C          2.0422470592        2.4805227393       -3.1405695116
 H          2.2000844692        2.0559570588       -4.1206335114
 H          2.9235654291        2.9397808298       -2.7169462320
 H          0.6847741988        3.9589814692       -2.1894769820
 H         -0.0537095011        3.0825547882       -3.5904550914
 H          0.6209094400        0.8860916690       -2.5640662705
 O          3.7044511703        1.9528792418        0.9040069583
