  62
        -98.94508796
 C          1.3620583201        0.8479439392        0.3730644614
 C          2.3370351003        0.8234730399       -0.6549486084
 C          3.1957572503       -0.3691109701       -0.6909143591
 C          2.9979592700       -1.3719300507        0.1821461702
 C          3.7680939000       -2.6631280908        0.2416405894
 C          5.0843883598       -2.5695313214        1.0257080297
 C          6.2054392800       -1.7984430510        0.3277535705
 H          7.1243200399       -1.9971835814        0.8830506505
 H          6.3433001702       -2.1917546903       -0.6798932498
 C          5.9858474001       -0.2804101309        0.2646974516
 H          5.2198987199        0.0075124486        0.9886183416
 H          6.9059495900        0.2329983388        0.5530654821
 C          5.5863398504        0.2450585201       -1.1141866582
 H          5.4182168604        1.3220588800       -1.0345970374
 H          6.4051366405        0.0836346105       -1.8188824381
 C          4.3146394405       -0.3928679995       -1.6882564589
 H          4.5184093305       -1.4139502892       -2.0092461596
 H          3.9992234607        0.1918609712       -2.5555655085
 H          4.8806409396       -2.1149656021        1.9981123900
 H          5.4309853297       -3.5903332816        1.2029659291
 H          3.9706371502       -3.0163902501       -0.7697781008
 H          3.1234918398       -3.3889122512        0.7421584887
 O          2.0241617599       -1.3290804714        1.1306525000
 C          1.2137533999       -0.2150500014        1.2683713706
 O          0.4026332197       -0.2927208821        2.2142872704
 O          2.5036005605        1.7331984405       -1.5077842477
 C          0.3930748201        2.0048831391        0.5680466921
 C         -0.7482645797        1.8795762799       -0.4133607182
 C         -0.5857224494        2.1508609508       -1.7681593680
 C         -1.6470994592        2.0017952715       -2.6415453583
 C         -2.8810410394        1.5683077312       -2.1889270189
 C         -3.0527055896        1.2901438003       -0.8381794191
 C         -1.9902611898        1.4572351796        0.0395360812
 H         -2.1395226100        1.2466202788        1.0878087310
 N         -4.2969061498        0.8590642400       -0.3494705897
 S         -4.3810537900       -0.3829497708        0.7685617094
 O         -5.7633424300       -0.8081887607        0.7188998388
 O         -3.9049657903        0.0703486082        2.0494122198
 C         -3.3363183800       -1.6657281704        0.1032775887
 C         -3.8631876798       -2.4657465697       -0.8933389620
 C         -3.0622729597       -3.4354952993       -1.4722052725
 C         -1.7477908998       -3.5832510596       -1.0542306624
 C         -1.2358241800       -2.7740041804       -0.0529227917
 C         -2.0339241401       -1.8047874608        0.5358992789
 H         -1.6489848902       -1.1723532814        1.3206712394
 H         -0.2151823300       -2.8809320807        0.2812914384
 H         -1.1196222198       -4.3344786893       -1.5065019328
 H         -3.4609402996       -4.0710223587       -2.2464284831
 H         -4.8927986397       -2.3259730594       -1.1806440821
 H         -5.0062854896        0.7496784905       -1.0599751799
 H         -3.7070372692        1.4486595218       -2.8733382191
 H         -1.5102435590        2.2180228822       -3.6902059581
 H          0.3825151907        2.4571602310       -2.1311822776
 H         -0.0243297601        1.8767704284        1.5763593119
 C          1.0570952302        3.3653889791        0.4983033632
 C          0.3392945401        4.5464440287        1.0759361339
 C          1.5561122700        4.0002800782        1.7595544937
 H          2.4710932900        4.5723134282        1.7220976343
 H          1.4203746798        3.4554224875        2.6830563233
 H          0.4167233203        5.4958573291        0.5689381446
 H         -0.6219529300        4.3704461984        1.5359375036
 H          1.6426747404        3.5191463697       -0.3978071666
