  62
        -98.94783867
 C          1.0266046668        0.9390834933        0.7202505976
 C          1.6973168458        0.8505574972       -0.5230132708
 C          2.3698437059       -0.4256520041       -0.7935653446
 C          2.2561087473       -1.4411431855        0.0803358513
 C          2.8452293201       -2.8170521555       -0.0781208219
 C          4.3138972363       -2.9250500197        0.3551772258
 C          5.3218949385       -2.2646048053       -0.5859768915
 H          6.3139403321       -2.6033795857       -0.2808586627
 H          5.1544170070       -2.6208951454       -1.6029283876
 C          5.2966189814       -0.7299308301       -0.5657332074
 H          4.7739959332       -0.3856828497        0.3294943626
 H          6.3187126095       -0.3492193075       -0.5076030101
 C          4.6446147413       -0.0918873228       -1.7924085733
 H          4.6464494765        0.9926980870       -1.6577598072
 H          5.2338978045       -0.3217059847       -2.6829386765
 C          3.1962484506       -0.5350045803       -2.0385077349
 H          2.7520117761        0.1268250435       -2.7864976960
 H          3.1716782763       -1.5548864798       -2.4231903444
 H          4.4145719793       -2.4967670949        1.3549770366
 H          4.5551452846       -3.9884274851        0.4221645009
 H          2.2520110478       -3.4849284614        0.5507509398
 H          2.7419493131       -3.1390122510       -1.1152295908
 O          1.5477766999       -1.3368905524        1.2367144161
 C          0.9261217778       -0.1475228579        1.5872344487
 O          0.3183085587       -0.1879590057        2.6762844160
 O          1.7384096867        1.7872429496       -1.3633387770
 C          0.2737433831        2.2062648318        1.0883772484
 C         -0.8166612715        2.4251309670        0.0668961214
 C         -1.0575291270        3.6338413194       -0.5713575184
 C         -2.0476713236        3.7264621401       -1.5351833795
 C         -2.8009010275        2.6228320540       -1.8909316243
 C         -2.5771898003        1.4117602293       -1.2445831638
 C         -1.6119407171        1.3327438434       -0.2563318305
 H         -1.4414975763        0.3920189965        0.2467000638
 N         -3.3247283890        0.2672124957       -1.5579451458
 S         -2.6168591051       -1.2451306060       -1.4509620764
 O         -1.2214621198       -1.2261164267       -1.8253074074
 O         -3.4730557138       -2.0919594011       -2.2572606831
 C         -2.8053747131       -1.7053725327        0.2574142197
 C         -4.0049358978       -1.4455290150        0.8901496202
 C         -4.1564756939       -1.8247675553        2.2139328066
 C         -3.1147181554       -2.4554873948        2.8773515983
 C         -1.9194736916       -2.7155658490        2.2259567027
 C         -1.7629264195       -2.3399716540        0.9017386400
 H         -0.8421941579       -2.5073189159        0.3636397543
 H         -1.1028102591       -3.1929510122        2.7431133829
 H         -3.2307533203       -2.7434354701        3.9102553832
 H         -5.0833395173       -1.6232822756        2.7265667936
 H         -4.7894087855       -0.9491192229        0.3437998666
 H         -3.9314437141        0.3519723281       -2.3603004294
 H         -3.5513378846        2.6919009340       -2.6635480605
 H         -2.2218101234        4.6691675485       -2.0315086608
 H         -0.4618844754        4.4981706087       -0.3277715392
 H         -0.2015091380        2.0074168661        2.0601874956
 C          1.2206616937        3.3777213681        1.2338519283
 C          0.8721949616        4.5190282220        2.1401989545
 C          1.9549998076        3.5583903794        2.5272524477
 H          2.9807655159        3.8936719950        2.4953407150
 H          1.7525971902        2.8474923471        3.3153125931
 H          1.1571049019        5.5175909248        1.8450533483
 H         -0.0650167593        4.4657555572        2.6730592922
 H          1.7587506996        3.5938196571        0.3182451890
