  62
        -98.93939419
 C         -2.6322001204       -0.9124448998        0.4357134110
 C         -2.6500896502        0.2554474000        1.2375939212
 C         -3.5303993501        1.3359791202        0.7827977516
 C         -4.2485064504        1.1798394105       -0.3444843983
 C         -5.2203482504        2.1739095407       -0.9202994279
 C         -4.5676611504        3.2579071008       -1.7887718278
 C         -3.7684809402        4.3112370906       -1.0207331577
 H         -3.5510894002        5.1210101507       -1.7199981775
 H         -4.3876747600        4.7260386105       -0.2247274375
 C         -2.4462974101        3.7977468203       -0.4335464780
 H         -2.1718710903        2.8584395304       -0.9198703483
 H         -1.6499231301        4.5134094603       -0.6497738580
 C         -2.4656641199        3.5850995500        1.0802855119
 H         -2.6087184197        4.5441078199        1.5830629522
 H         -1.4933664598        3.1878390598        1.3825931217
 C         -3.5472301799        2.6124533800        1.5688162419
 H         -4.5290236298        3.0816720901        1.5104946522
 H         -3.3389744597        2.3634959597        2.6122435418
 H         -5.3680000705        3.7646795210       -2.3329185675
 H         -3.9209314506        2.7735363309       -2.5241089280
 H         -5.9126868705        1.6042938009       -1.5439371879
 H         -5.7846566802        2.6428746306       -0.1136877677
 O         -4.1836452906        0.0537947206       -1.1018403085
 C         -3.3602824207       -1.0076750895       -0.7508716189
 O         -3.3813233609       -1.9523640093       -1.5613443591
 O         -1.9654058500        0.3855894097        2.2885666311
 C         -1.7409051905       -2.0646892700        0.8694658606
 C         -0.5453271106       -2.1265559699       -0.0498228997
 C         -0.3762559109       -3.1002821298       -1.0244658599
 C          0.7345912489       -3.0740174197       -1.8507925601
 C          1.6950664591       -2.0881607098       -1.7213605801
 C          1.5384778093       -1.1121627800       -0.7445793498
 C          0.4255143595       -1.1400398601        0.0822774604
 H          0.2957015897       -0.3794171602        0.8420757006
 N          2.5087737595       -0.0999824101       -0.6091098398
 S          4.1229208094       -0.6063654803       -0.6264157802
 O          4.5430232692       -0.7380080700       -1.9990741203
 O          4.2792084794       -1.7848555805        0.1964801695
 C          4.9428971897        0.7863057295        0.1236555500
 C          5.1693704199        0.7774888191        1.4870553500
 C          5.7936692801        1.8690318889        2.0698252501
 C          6.1763297301        2.9457883291        1.2839591103
 C          5.9420128099        2.9399516894       -0.0830849697
 C          5.3192074296        1.8512446896       -0.6724671698
 H          5.1258621895        1.7978142599       -1.7311119998
 H          6.2437729298        3.7778339195       -0.6906069196
 H          6.6631937803        3.7933019489        1.7399757304
 H          5.9797001403        1.8749339187        3.1317983801
 H          4.8650893299       -0.0854024810        2.0578322298
 H          2.3243394997        0.4925443497        0.1893526104
 H          2.5674721290       -2.0651833198       -2.3545720802
 H          0.8544712587       -3.8345532695       -2.6079095203
 H         -1.1192317510       -3.8708351596       -1.1461470099
 H         -1.3780063003       -1.7851794503        1.8688248806
 C         -2.5025265706       -3.3672697900        0.9792682204
 C         -1.9060527406       -4.5015116902        1.7561448801
 C         -3.0889670604       -3.7603524502        2.3007118204
 H         -4.0484001704       -4.2552803101        2.3108359805
 H         -2.9340127002       -3.0923575104        3.1354139605
 H         -2.0514005307       -5.5077649401        1.3941477399
 H         -0.9447392305       -4.3360759404        2.2190047499
 H         -3.0770972408       -3.6038937497        0.0923182705
