  62
        -98.93821231
 C         -1.7714678819       -0.2088568509       -0.8845457191
 C         -2.9324673514        0.5953517142       -1.0049901982
 C         -4.2087310540       -0.0747911902       -0.6982718070
 C         -4.2130890830       -1.3690899913       -0.3352602245
 C         -5.4332256669       -2.1481646330        0.0606284013
 C         -5.6755414565       -2.0702878993        1.5744849856
 C         -5.6261935021       -0.6490923676        2.1354759698
 H         -5.8405998369       -0.7136952830        3.2044718604
 H         -4.6097161564       -0.2615067893        2.0349898980
 C         -6.6087139147        0.3283464129        1.4753403427
 H         -7.3851220777       -0.2265484670        0.9473810677
 H         -7.1014666161        0.9108348294        2.2567471165
 C         -5.9604643428        1.3284719349        0.5162744543
 H         -5.1214438014        1.8216519724        1.0136346120
 H         -6.6983772800        2.0996570021        0.2792580267
 C         -5.4601407484        0.7499246804       -0.8133303897
 H         -6.2581570512        0.1756385111       -1.2882281817
 H         -5.2057416074        1.5905985365       -1.4656081542
 H         -6.6480961445       -2.5157107021        1.7917945258
 H         -4.9092406500       -2.6636105500        2.0786421832
 H         -6.2962678186       -1.7595801336       -0.4764992228
 H         -5.2809238813       -3.1914832503       -0.2207983835
 O         -3.0804730254       -2.1116806503       -0.2409008875
 C         -1.8425315805       -1.5517563557       -0.5023840654
 O         -0.8870600259       -2.3434853774       -0.3722318799
 O         -2.9298553527        1.8057833383       -1.3439057628
 C         -0.3676138894        0.3057534428       -1.1537278960
 C          0.2457056421        0.9342635106        0.0708474837
 C         -0.4611106976        1.8252807620        0.8714964378
 C          0.1410802973        2.4026128770        1.9746190669
 C          1.4614168081        2.1261449553        2.2838057679
 C          2.1773963782        1.2398828080        1.4883717638
 C          1.5585982752        0.6356465808        0.4031937442
 H          2.1113893074       -0.0726980399       -0.1940586999
 N          3.5176946847        0.9368376840        1.7638092179
 S          4.6027083339        0.7939740333        0.4937493326
 O          5.8916183593        1.0862930591        1.0825874674
 O          4.2104595242        1.6146871969       -0.6270981027
 C          4.5457345554       -0.9293432952        0.0541341712
 C          4.8072094932       -1.8626136015        1.0376120201
 C          4.7771950908       -3.2078243814        0.7081531576
 C          4.4891059693       -3.5948870996       -0.5920254770
 C          4.2329326152       -2.6455187175       -1.5690161172
 C          4.2618692648       -1.2981542907       -1.2456339426
 H          4.0638455788       -0.5282767833       -1.9753724999
 H          4.0072501036       -2.9479109920       -2.5791372001
 H          4.4628797479       -4.6426764618       -0.8465927129
 H          4.9755989859       -3.9503274674        1.4642354816
 H          5.0309958326       -1.5226125951        2.0349727336
 H          3.9157712385        1.4373555112        2.5449911200
 H          1.9348122603        2.5924696728        3.1345885413
 H         -0.4187569706        3.0895750600        2.5915507138
 H         -1.4801450183        2.0705669024        0.6140368563
 H          0.2261140961       -0.5923404800       -1.3888429455
 C         -0.2847830362        1.2220422738       -2.3678985832
 C         -0.0986917896        2.7033916149       -2.2795543243
 C          1.0244959690        1.8395067670       -2.7644146367
 H          1.2819640600        1.8684495092       -3.8128268711
 H          1.8731448596        1.7075333195       -2.1078588902
 H         -0.6321232631        3.3182920675       -2.9882382827
 H         -0.0118421485        3.1487870380       -1.3010687402
 H         -0.9158799494        0.8686836802       -3.1776495336
