  62
        -98.93910899
 C         -2.4782906565       -1.0369411083        0.3783496501
 C         -2.6769787290        0.1469325822        1.1373157684
 C         -3.9495842520        0.8463074979        0.9348967479
 C         -4.8616151145        0.3346371716        0.0888879108
 C         -6.2192237100        0.9112144623       -0.2081721113
 C         -6.2092052451        2.0136351999       -1.2759576598
 C         -5.6134974354        3.3485115996       -0.8269920849
 H         -5.8675347833        4.0857659586       -1.5910806841
 H         -6.0900525216        3.6642408973        0.1015303987
 C         -4.0891136346        3.3327458918       -0.6455198745
 H         -3.6691349898        2.4611592591       -1.1532731831
 H         -3.6561691247        4.2168307520       -1.1189538415
 C         -3.6233451310        3.3264290193        0.8107099649
 H         -2.5312363271        3.2750821074        0.8212890269
 H         -3.9212192366        4.2588117430        1.2956506399
 C         -4.1592409166        2.1520939293        1.6401180326
 H         -5.2159898487        2.2991576651        1.8625297158
 H         -3.6039968911        2.1146650786        2.5806720366
 H         -5.6657049165        1.6479812664       -2.1501151560
 H         -7.2454357165        2.1853921576       -1.5759817382
 H         -6.8341759750        0.0851866771       -0.5715137578
 H         -6.6617307255        1.2967367689        0.7107147766
 O         -4.6487893694       -0.8167269817       -0.5974912446
 C         -3.4542693326       -1.5172200635       -0.4956502648
 O         -3.4167733150       -2.5305609257       -1.2204264866
 O         -1.8301837059        0.5937497100        1.9579352273
 C         -1.1495607251       -1.7491953346        0.5644015966
 C         -0.1867261842       -1.4218295803       -0.5526849509
 C         -0.3910089238       -1.8788077374       -1.8510522114
 C          0.5206213420       -1.5815348978       -2.8471781484
 C          1.6572906909       -0.8430946540       -2.5684469740
 C          1.8643005716       -0.3719784227       -1.2773865403
 C          0.9394504025       -0.6578482331       -0.2825158400
 H          1.1089772534       -0.2770160842        0.7145372602
 N          2.9938876756        0.4017844536       -0.9675867015
 S          3.7048077492        0.2030502986        0.5516115714
 O          3.7359950684       -1.1992881287        0.9009613296
 O          3.0541362793        1.0822657824        1.4901712642
 C          5.3550510355        0.7919843669        0.2194386300
 C          6.3409658651       -0.1172552234       -0.1150713727
 C          7.6140933249        0.3496737443       -0.4017623731
 C          7.8775585393        1.7103714294       -0.3524707703
 C          6.8781661590        2.6106122602       -0.0137852006
 C          5.6032904771        2.1504835829        0.2753833265
 H          4.7979058407        2.8102861530        0.5534381987
 H          7.0875347606        3.6673558074        0.0272212334
 H          8.8689959972        2.0714278884       -0.5758347572
 H          8.3941419079       -0.3477743992       -0.6612590775
 H          6.0921382208       -1.1662233892       -0.1312249562
 H          3.6812185052        0.4113291695       -1.7087606347
 H          2.3743980174       -0.6251845296       -3.3453987124
 H          0.3504223905       -1.9407183779       -3.8510170978
 H         -1.2762144806       -2.4549256544       -2.0712330973
 H         -0.7286172389       -1.3298988830        1.4892400756
 C         -1.2790040206       -3.2500978943        0.7387024390
 C         -0.1205370510       -4.0070417654        1.3134748763
 C         -1.3710012508       -3.8235260702        2.1190864549
 H         -2.0114627463       -4.6777015257        2.2799797437
 H         -1.3452109888       -3.1336497764        2.9503250058
 H          0.0985727350       -4.9883242318        0.9213992625
 H          0.7562465712       -3.4406492658        1.5933822023
 H         -1.8592256861       -3.7284497184       -0.0392320615
