  62
        -98.94106326
 C          1.7381110101        0.9714297170        0.2982980963
 C          2.1491060028       -0.3766504935        0.4457725079
 C          3.5975232894       -0.5856132440        0.5987271477
 C          4.4309439248        0.4678633329        0.6511604947
 C          5.9247928114        0.4120347006        0.8214505897
 C          6.6930746536        0.1816403494       -0.4871123297
 C          6.5913697693       -1.2321061366       -1.0612604417
 H          7.3440836769       -1.3132057994       -1.8479791079
 H          6.8494467760       -1.9566174017       -0.2882355831
 C          5.2187920349       -1.5782473693       -1.6554577274
 H          4.6558428521       -0.6590186964       -1.8335478425
 H          5.3528431172       -2.0625947798       -2.6253667936
 C          4.3733808113       -2.5169542738       -0.7942782095
 H          4.8659136625       -3.4890833079       -0.7197956591
 H          3.4112822634       -2.6664147625       -1.2918983871
 C          4.0987824980       -1.9979435844        0.6233795372
 H          4.9994472091       -2.0730179035        1.2323821663
 H          3.3188579867       -2.6189427137        1.0712853390
 H          7.7459490877        0.3947687793       -0.2884830209
 H          6.3429311893        0.9022673472       -1.2298674020
 H          6.2267977834        1.3777497897        1.2324681672
 H          6.1832691851       -0.3672987036        1.5388404631
 O          3.9880761421        1.7510784760        0.5756901090
 C          2.6450643852        2.0318578665        0.3834669995
 O          2.3841581750        3.2495912881        0.3196148765
 O          1.3683898999       -1.3624708368        0.4541149593
 C          0.2823626210        1.3504985172        0.0865105238
 C         -0.6100767005        0.5689733672        1.0176272186
 C         -0.5036882260        0.7908441444        2.3885269111
 C         -1.3000678505        0.0993499053        3.2799568012
 C         -2.2378239606       -0.8103508543        2.8226981310
 C         -2.3500390871       -1.0401903093        1.4573306400
 C         -1.5385349545       -0.3536530218        0.5639518372
 H         -1.6115602453       -0.5888369078       -0.4839522627
 N         -3.2895446137       -1.9536531947        0.9612732984
 S         -4.0389441991       -1.6798074655       -0.5019282618
 O         -5.2934530923       -2.3960741575       -0.4019121192
 O         -3.1871257444       -2.0655194259       -1.5982555264
 C         -4.3465952071        0.0780805232       -0.5607560890
 C         -5.0173451302        0.6686339177        0.4919439652
 C         -5.2509669778        2.0336117389        0.4569182741
 C         -4.8156167757        2.7819352617       -0.6260973842
 C         -4.1528611908        2.1732714740       -1.6802927336
 C         -3.9139780832        0.8084263239       -1.6484258532
 H         -3.3962274734        0.2956304244       -2.4435665065
 H         -3.8172795181        2.7560920672       -2.5235697343
 H         -4.9943395995        3.8453005290       -0.6501708823
 H         -5.7688324373        2.5100247503        1.2736627648
 H         -5.3501506866        0.0605718198        1.3171691643
 H         -3.9117329569       -2.3539406987        1.6468192224
 H         -2.8640805473       -1.3499930702        3.5166303444
 H         -1.1979236098        0.2745544160        4.3403430805
 H          0.2259171568        1.5054792270        2.7452355218
 H          0.2210957857        2.4121670814        0.3776333157
 C         -0.1718167595        1.2720632718       -1.3634727992
 C          0.7765561788        1.5428878230       -2.4917078851
 C          0.2457097574        0.1590682348       -2.2746890362
 H         -0.4797865557       -0.2362748567       -2.9714600618
 H          0.9089152342       -0.5922873493       -1.8755192423
 H          0.4182565567        2.1067849975       -3.3396319853
 H          1.8091091781        1.7402187522       -2.2419512904
 H         -1.1838267731        1.6465017953       -1.4855638486
