  62
        -98.94468713
 C         -2.0043473775       -0.7593174972        0.5620297871
 C         -1.9669671569       -0.0599549101       -0.6682863531
 C         -2.0339497140        1.4021062736       -0.5716575720
 C         -2.0621919508        1.9917777062        0.6367867340
 C         -2.0799983524        3.4736800063        0.8991991604
 C         -3.4758455859        4.1085305880        0.8274297261
 C         -4.0611453585        4.2373282117       -0.5793890233
 H         -4.9341344657        4.8885678667       -0.5042525480
 H         -3.3378348557        4.7335698885       -1.2269671127
 C         -4.4908238759        2.9056114899       -1.2102904792
 H         -5.4804231124        3.0173604177       -1.6587293068
 H         -4.5748169789        2.1441654780       -0.4315657227
 C         -3.5532936893        2.3911134938       -2.3026632884
 H         -3.5577545602        3.0841795766       -3.1467287854
 H         -3.9314880032        1.4279730083       -2.6541324815
 C         -2.1027098445        2.1898986632       -1.8445021939
 H         -1.5704615349        1.6203381253       -2.6103908959
 H         -1.6060842137        3.1523471440       -1.7214660251
 H         -3.3997628529        5.1088877696        1.2597308313
 H         -4.1552720531        3.5259866095        1.4537561819
 H         -1.4110785930        3.9733107644        0.1975076547
 H         -1.6873652964        3.6126999807        1.9090952923
 O         -2.0582877591        1.2843040066        1.7994988238
 C         -2.0338746480       -0.1009288139        1.7894587047
 O         -2.0438241722       -0.6239823610        2.9245064095
 O         -1.8848901273       -0.6268745003       -1.7895863788
 C         -1.8988597895       -2.2739708226        0.5695144880
 C         -0.6081864860       -2.6761130708       -0.1039577484
 C         -0.5102364383       -3.7042203636       -1.0321127023
 C          0.7020260194       -3.9820084799       -1.6406329101
 C          1.8304537131       -3.2386030974       -1.3493624103
 C          1.7465231909       -2.2214993921       -0.4042549541
 C          0.5399970980       -1.9658994201        0.2236315921
 H          0.4867743933       -1.1725166783        0.9565661202
 N          2.8754060070       -1.4566692731       -0.0606656628
 S          2.6421409343        0.1612455979        0.3648245515
 O          2.2972860293        0.2268627809        1.7642369844
 O          1.7310206689        0.8038743943       -0.5551058619
 C          4.2976729395        0.7833349243        0.1300702124
 C          5.2324643011        0.5791404002        1.1275241481
 C          6.5292310518        1.0273356989        0.9322198376
 C          6.8682120044        1.6676220517       -0.2506681113
 C          5.9189427810        1.8673450408       -1.2417052530
 C          4.6203978084        1.4202921832       -1.0532567644
 H          3.8460980132        1.5590191923       -1.7908924188
 H          6.1839504144        2.3684734361       -2.1587031753
 H          7.8778872555        2.0159864131       -0.3999111073
 H          7.2688447152        0.8763826391        1.7018098089
 H          4.9185262669        0.0849834432        2.0321737467
 H          3.6338730485       -1.5599729181       -0.7213533316
 H          2.7676803032       -3.4394042599       -1.8456071142
 H          0.7636744588       -4.7779758922       -2.3672049435
 H         -1.3854017316       -4.2774592599       -1.2907800088
 H         -1.8433858058       -2.5718841658        1.6274121453
 C         -3.1291415856       -2.8986951046       -0.0544399998
 C         -3.5962232475       -4.2527926790        0.3855924519
 C         -4.3709083438       -3.0302675952        0.7733529533
 H         -5.3258276347       -2.8507064059        0.3028010592
 H         -4.3186254235       -2.6918598832        1.7982779898
 H         -4.0245058588       -4.9150631999       -0.3515320246
 H         -3.0251473576       -4.7533657458        1.1528446394
 H         -3.2479118218       -2.6258827561       -1.0967065758
