  62
        -98.93509934
 C         -1.6970955455       -1.2336671385        0.2072730149
 C         -1.7498560411        0.1466119764        0.5212907615
 C         -2.9115806903        0.9100641669        0.0307042209
 C         -3.8496445054        0.2615145840       -0.6839331583
 C         -5.1383056619        0.8207170236       -1.2211994494
 C         -6.2151844277        0.9701555035       -0.1288945885
 C         -5.7020106037        1.4272782319        1.2359360038
 H         -6.5193201531        1.3155418909        1.9535434904
 H         -4.8986368079        0.7619472513        1.5586455460
 C         -5.2207662455        2.8751027434        1.3024986585
 H         -6.0702190890        3.5395090801        1.1259435690
 H         -4.8627644527        3.0567226388        2.3192277001
 C         -4.1114971508        3.2549121769        0.3231084036
 H         -4.5012862580        3.2994552002       -0.6902516080
 H         -3.7860807151        4.2682471602        0.5772308077
 C         -2.8626321158        2.3778980787        0.3786182770
 H         -2.4368267941        2.4253270897        1.3871214212
 H         -2.1077544255        2.8220084657       -0.2825770184
 H         -6.9779785909        1.6646246298       -0.4839924832
 H         -6.6865599525       -0.0055431891        0.0101781105
 H         -4.9470559348        1.7675177515       -1.7182753244
 H         -5.5015693616        0.1172551675       -1.9732053929
 O         -3.7572731874       -1.0648441506       -0.9713563634
 C         -2.6841874088       -1.8453369628       -0.5658512572
 O         -2.7486441577       -3.0246757373       -0.9557972335
 O         -0.8581758647        0.7221642462        1.2026954437
 C         -0.4874886991       -1.9924857884        0.7222417847
 C          0.6637471730       -1.8431838152       -0.2393640216
 C          0.5052378934       -2.1046376646       -1.5972631303
 C          1.5693954529       -1.9526092222       -2.4664868873
 C          2.8012711716       -1.5214826556       -2.0044359969
 C          2.9685700368       -1.2525837867       -0.6513231273
 C          1.9022109590       -1.4248454033        0.2220905631
 H          2.0463991676       -1.2110154503        1.2701345970
 N          4.2109948424       -0.8284464856       -0.1528738968
 S          4.3065889307        0.4708213265        0.8999243649
 O          5.7190479203        0.7764265005        0.9590637355
 O          3.6760087976        0.1374851475        2.1503650977
 C          3.4442032894        1.7936144386        0.0715842962
 C          4.1779559821        2.6132512437       -0.7658203332
 C          3.5293696381        3.6170031780       -1.4650923414
 C          2.1590866790        3.7800922118       -1.3234006542
 C          1.4389426479        2.9478753306       -0.4819129613
 C          2.0809210942        1.9425047601        0.2247787032
 H          1.5222917810        1.2937782636        0.8804927137
 H          0.3731597516        3.0611625197       -0.3602865240
 H          1.6505482648        4.5600266844       -1.8681348656
 H          4.0903193571        4.2668879499       -2.1172808443
 H          5.2423577996        2.4578247106       -0.8379468181
 H          4.9355782304       -0.7621566063       -0.8535501049
 H          3.6286927655       -1.3966799142       -2.6862045043
 H          1.4371019317       -2.1641507082       -3.5168073643
 H         -0.4587859449       -2.4321890023       -1.9582093131
 H         -0.2003936574       -1.4749028638        1.6525636986
 C         -0.7748070801       -3.4411458379        1.0865462141
 C         -0.2510849952       -4.6095236054        0.3123673638
 C          0.3190756392       -4.2927696096        1.6602909587
 H          0.0880463814       -4.9437907567        2.4898110194
 H          1.3110502429       -3.8665091782        1.6966743490
 H         -0.8978129197       -5.4670441296        0.2074708458
 H          0.3583240186       -4.4172480839       -0.5563406905
 H         -1.7616513696       -3.5609700660        1.5215397229
