  62
        -98.93654566
 C         -1.2937791451       -1.2162610645        0.2114460358
 C         -2.2474209060       -0.7869541455        1.1661072604
 C         -2.8920817502        0.5130569727        0.9165827787
 C         -2.5075548406        1.2437778347       -0.1434589598
 C         -2.9881302031        2.6119908291       -0.5575459981
 C         -4.5001935135        2.8760866318       -0.5058539876
 C         -5.3863744779        1.6527918226       -0.7824896207
 H         -6.1250412622        1.9149103045       -1.5422479795
 H         -4.7844630154        0.8353245322       -1.1829152764
 C         -6.1429075462        1.1703495670        0.4577926863
 H         -7.0003941296        0.5739874258        0.1365449643
 H         -6.5328750149        2.0406255878        0.9903410518
 C         -5.3345032479        0.3115815888        1.4300009748
 H         -5.9482960589        0.1401982857        2.3176919126
 H         -5.1386996556       -0.6679144243        0.9845912650
 C         -3.9846695318        0.9013382057        1.8703983795
 H         -4.0485059995        1.9796818484        1.9952207535
 H         -3.7206583376        0.4538553414        2.8327135259
 H         -4.7650326724        3.2905882613        0.4660161428
 H         -4.7110354603        3.6511704933       -1.2445270365
 H         -2.6294269888        2.7411659673       -1.5809305444
 H         -2.4775869995        3.3542302889        0.0626993611
 O         -1.5451110704        0.8187054827       -1.0069474081
 C         -0.9185992462       -0.4117549682       -0.8661894829
 O         -0.0712971599       -0.6487490491       -1.7435197129
 O         -2.5366947861       -1.4534404690        2.1964688095
 C         -0.6000419491       -2.5461840335        0.4485919140
 C          0.8876256427       -2.3666961233        0.2807873145
 C          1.6610239731       -3.0801443591       -0.6238158219
 C          3.0143530933       -2.8156312515       -0.7503984083
 C          3.6239360383       -1.8403666688        0.0165834880
 C          2.8586002550       -1.1234519878        0.9276599058
 C          1.5075813712       -1.3965275852        1.0599192790
 H          0.9121984325       -0.8301327368        1.7665238563
 N          3.4639400602       -0.1144603507        1.7080488423
 S          4.1600950302        1.1602905936        0.8712148332
 O          5.3489114957        0.6892240286        0.2074941673
 O          4.3511124427        2.1994516216        1.8587249243
 C          2.9455518088        1.6695410144       -0.3294271200
 C          1.9640832877        2.5567168008        0.0649286785
 C          0.9958485259        2.9337587603       -0.8505261298
 C          1.0191535524        2.4107297998       -2.1336232095
 C          2.0051315741        1.5136920490       -2.5105185134
 C          2.9800535612        1.1370390848       -1.6017623523
 H          3.7641839572        0.4439787071       -1.8588294824
 H          2.0090533212        1.0965612726       -3.5040929929
 H          0.2570374289        2.6948688924       -2.8417424947
 H          0.2224480629        3.6272049698       -0.5601978850
 H          1.9842220761        2.9463819810        1.0707576663
 H          2.8463135164        0.2561804371        2.4168468290
 H          4.6718216782       -1.6085361212       -0.0855527142
 H          3.6018199052       -3.3727825527       -1.4643762839
 H          1.2009183918       -3.8250411077       -1.2516929991
 H         -0.7978790263       -2.7723821264        1.5102132287
 C         -1.1690706760       -3.7070829257       -0.3522269703
 C         -2.5977075108       -3.7017759402       -0.8053687968
 C         -1.4928358606       -3.5924969737       -1.8106140141
 H         -1.2961283278       -4.4432235993       -2.4466934011
 H         -1.3188563062       -2.6408059562       -2.2869433307
 H         -3.1580371095       -4.6230775291       -0.7493842461
 H         -3.1860394185       -2.8205457148       -0.5940939458
 H         -0.7789403910       -4.6620615027       -0.0134941756
