  62
        -98.94357909
 C          1.9957624971        1.3543142062       -0.1305751729
 C          1.9058384427        0.0329922465       -0.6310139663
 C          3.1809746162       -0.6868318829       -0.7632296043
 C          4.3265549144       -0.0705768864       -0.4194917516
 C          5.6837953844       -0.7104752922       -0.4435815906
 C          6.0130910939       -1.3632814661        0.9064913134
 C          4.9014014499       -2.2626879963        1.4476356787
 H          5.2573599093       -2.6887994439        2.3882476248
 H          4.0286790981       -1.6493954267        1.6840483048
 C          4.4814886859       -3.3951275374        0.5000955703
 H          5.2561976114       -3.5558118685       -0.2506038694
 H          4.3923890084       -4.3184947878        1.0763647922
 C          3.1381998295       -3.1732363949       -0.1973977701
 H          2.8390585551       -4.1150341024       -0.6651951318
 H          2.3766248580       -2.9208558499        0.5451425462
 C          3.1268115245       -2.0942107039       -1.2872763527
 H          3.9397387204       -2.2757377579       -1.9930665585
 H          2.1787019990       -2.1768201991       -1.8261551849
 H          6.1990324037       -0.5725957284        1.6372583534
 H          6.9306271400       -1.9438500415        0.7946560840
 H          5.7154853908       -1.4554056936       -1.2362698207
 H          6.4254279883        0.0620847510       -0.6535368480
 O          4.3730263977        1.2050121478        0.0438948724
 C          3.2126814506        1.9452108317        0.2065529480
 O          3.3927278360        3.0962064444        0.6546071951
 H         -2.0027688414        2.0045781071       -0.1566530622
 C         -1.6127941130        1.4869707144        0.7062653938
 C         -0.2471384172        1.4769621876        0.9491636498
 C          0.2173333848        0.8099660049        2.0792859804
 C         -0.6549123851        0.1518196972        2.9253286626
 C         -2.0159345963        0.1560993483        2.6740728419
 C         -2.4928371352        0.8308777851        1.5593343521
 N         -3.8821502135        0.8455110877        1.3097445199
 S         -4.6117814544       -0.6041200837        0.8917038090
 O         -6.0153892572       -0.3015627190        0.7281391308
 O         -4.2801474047       -1.5961822305        1.8811219912
 C         -3.9022138658       -1.0279426720       -0.6887351174
 C         -2.5827163815       -1.4310720811       -0.7380264935
 C         -2.0031859448       -1.6770224939       -1.9724460177
 C         -2.7524079652       -1.5253701398       -3.1289947719
 C         -4.0799752043       -1.1288371921       -3.0625865846
 C         -4.6602591036       -0.8669382874       -1.8322401579
 H         -5.6848738861       -0.5464062188       -1.7329977395
 H         -4.6593232183       -1.0144860338       -3.9648473667
 H         -2.2958309396       -1.7151769469       -4.0879155651
 H         -0.9617656826       -1.9515879998       -2.0130142435
 H         -2.0171039261       -1.5405594041        0.1729742993
 H         -4.1603864540        1.5538653562        0.6442086867
 H         -2.7089003676       -0.3660627603        3.3129920185
 H         -0.2731470183       -0.3673746241        3.7918429080
 H          1.2797261908        0.8071315613        2.2836969224
 C          0.7352681024        2.1803213425        0.0437606967
 H          1.0474930531        3.1116132211        0.5395141291
 C          0.1557369162        2.5216282731       -1.3149497909
 C         -0.5611426176        3.8193163118       -1.5344448419
 C          0.8014061529        3.6069161159       -2.1208480408
 H          0.8911214702        3.4742830591       -3.1884650856
 H          1.6390334740        4.1225919694       -1.6735407131
 H         -1.4072758363        3.8354128641       -2.2053125190
 H         -0.6491550172        4.4929201943       -0.6951443957
 H         -0.1953241727        1.6444698388       -1.8469577812
 O          0.8219644464       -0.5181326246       -0.9487820964
