  62
        -98.93582666
 C          2.3560791338        1.1047214684        0.1306314823
 C          3.6072564027        1.0101168122        0.7920789807
 C          4.6044830074        0.0953495400        0.2105819195
 C          4.2749464057       -0.6143011251       -0.8819425286
 C          5.1111754907       -1.6384671652       -1.5982524968
 C          4.8091713252       -3.0520423220       -1.0723380948
 C          5.6322560963       -3.4772285961        0.1431435430
 H          5.2317285258       -4.4335480392        0.4872674215
 H          6.6658819493       -3.6469779834       -0.1656156435
 C          5.6269991709       -2.4916872645        1.3145844330
 H          4.6148035529       -2.1145964403        1.4725815228
 H          5.9111550382       -3.0403620849        2.2146159257
 C          6.5985413344       -1.3180408974        1.1203442240
 H          7.2607908508       -1.5383204561        0.2833403295
 H          7.2351505003       -1.2259236180        2.0027361081
 C          5.9362696974        0.0510304759        0.9091701532
 H          5.7535692516        0.5200606119        1.8811203351
 H          6.6325232293        0.7051048224        0.3734153677
 H          3.7436084482       -3.0993105819       -0.8319325271
 H          4.9938126117       -3.7704648197       -1.8737222453
 H          4.8252101233       -1.5914841432       -2.6512049628
 H          6.1678231002       -1.4033044729       -1.5112731969
 O          3.0525179297       -0.5188235378       -1.4709503972
 C          2.0637681099        0.3295960956       -0.9930156451
 O          1.0119372834        0.2900756774       -1.6589031409
 O          3.8801586873        1.6630275476        1.8347292704
 C          1.3233790019        2.0394921635        0.7379686321
 C          0.0192652511        1.3097075379        0.9285976412
 C         -0.1344281678        0.4564414329        2.0172363167
 C         -1.3027852107       -0.2610889558        2.1910511769
 C         -2.3368764435       -0.1519870248        1.2774732265
 C         -2.1835976034        0.6790745953        0.1764184200
 C         -1.0195826108        1.4202993173        0.0189545006
 H         -0.9055963271        2.0549200579       -0.8460160727
 N         -3.2198671976        0.7908102582       -0.7644551834
 S         -4.0387795009       -0.5899681625       -1.2499592739
 O         -3.2178976491       -1.7753982666       -1.1670776998
 O         -4.5759394217       -0.2673236354       -2.5543510985
 C         -5.3871585690       -0.6995355886       -0.0889610854
 C         -6.1810240603        0.4154551075        0.0967084582
 C         -7.2402788181        0.3426620358        0.9870097174
 C         -7.4896403227       -0.8380839215        1.6705993749
 C         -6.6866001182       -1.9501911059        1.4702761982
 C         -5.6245156497       -1.8832457121        0.5817324518
 H         -4.9705306456       -2.7211083945        0.3979431033
 H         -6.8819126529       -2.8678897224        2.0015290233
 H         -8.3144753008       -0.8920359104        2.3634547665
 H         -7.8670456064        1.2054796298        1.1451696040
 H         -5.9560812323        1.3122742560       -0.4557429680
 H         -2.9758498114        1.3592940544       -1.5627486761
 H         -3.2442929372       -0.7207257337        1.3979993584
 H         -1.4103269245       -0.9155415126        3.0427714353
 H          0.6798301788        0.3555566195        2.7216557849
 H          1.7293966148        2.2776658508        1.7342425271
 C          1.1593265616        3.3669210447        0.0126006089
 C          2.3543323861        4.0806345358       -0.5431260216
 C          1.3162635195        3.5244642894       -1.4689018330
 H          0.6620613640        4.2176901410       -1.9781031312
 H          1.5576504020        2.6492003258       -2.0513802098
 H          2.4198523898        5.1514283291       -0.4234727578
 H          3.3063012030        3.5734700045       -0.4824875762
 H          0.4036045739        3.9871817284        0.4853981363
