  62
        -98.94093259
 C          1.8749887273        1.3255415914        0.6398079232
 C          1.8031100582       -0.0109982106        1.1116936988
 C          3.0171861843       -0.8202230699        0.9701328677
 C          4.1301350261       -0.2614815036        0.4614419988
 C          5.4672714513       -0.9335571098        0.3032122279
 C          5.6106234033       -1.7528645507       -0.9864954798
 C          4.8139114152       -3.0574897583       -1.0174807780
 H          5.1689960027       -3.6297442730       -1.8768333403
 H          5.0382914033       -3.6400989415       -0.1234342980
 C          3.2964814514       -2.8648733644       -1.1441414811
 H          3.0859315121       -1.8485884524       -1.4853406192
 H          2.9053184472       -3.5439704537       -1.9048997921
 C          2.5109123124       -3.1261320721        0.1410355147
 H          1.4586620696       -2.9121445328       -0.0617655140
 H          2.5979850259       -4.1795779798        0.4162006943
 C          2.9483328290       -2.2713268612        1.3382832619
 H          3.9111508761       -2.6157748313        1.7154736333
 H          2.2041446705       -2.3777518360        2.1316213856
 H          5.3179965706       -1.1266096699       -1.8324734068
 H          6.6697240205       -1.9943386464       -1.1028354265
 H          5.6579609473       -1.5735883399        1.1653004693
 H          6.2146363199       -0.1371573002        0.2895004993
 O          4.1688526931        1.0292096940        0.0424593399
 C          3.0377392382        1.8423496352        0.0671330979
 O          3.2273483414        2.9656970913       -0.4321605479
 O          0.7666192801       -0.4995954010        1.6352678271
 C          0.5940797774        2.1331697551        0.7491622926
 C         -0.3306658269        1.7836005943       -0.3898262405
 C          0.1338921962        1.7338832961       -1.7005320633
 C         -0.7229121594        1.4013859077       -2.7332273259
 C         -2.0499783454        1.1012405158       -2.4784004014
 C         -2.5251775256        1.1488932745       -1.1727681775
 C         -1.6635036263        1.4959512217       -0.1397950607
 H         -2.0445385540        1.5304175225        0.8692487470
 N         -3.8739383544        0.8815614898       -0.8979831082
 S         -4.3562545771       -0.0221623916        0.4243959674
 O         -5.7710205354       -0.2303077238        0.2090496010
 O         -3.9906256242        0.6546335300        1.6418384793
 C         -3.4996545007       -1.5787598006        0.2751203723
 C         -2.2382266150       -1.7344697488        0.8121334319
 C         -1.5905472748       -2.9492618232        0.6496324283
 C         -2.2026957615       -3.9786220804       -0.0469426909
 C         -3.4706757219       -3.8050527886       -0.5824170515
 C         -4.1253810009       -2.5954138368       -0.4222322858
 H         -5.1168950090       -2.4226132273       -0.8086350769
 H         -3.9484122056       -4.6072899236       -1.1215692090
 H         -1.6899473458       -4.9196680162       -0.1698962640
 H         -0.6056542202       -3.0667760932        1.0730009947
 H         -1.7603329756       -0.9291534325        1.3456885486
 H         -4.4253722968        0.6428417219       -1.7093878104
 H         -2.7157966850        0.8368149512       -3.2856335768
 H         -0.3530364746        1.3691448865       -3.7470019528
 H          1.1712557542        1.9643346914       -1.8973069797
 H          0.1103131618        1.7824287617        1.6762113181
 C          0.8068015218        3.6315557930        0.8960136398
 C          0.5002301885        4.6159078863       -0.1882381174
 C         -0.3770726657        4.5441814638        1.0233602154
 H         -0.3349030762        5.3470560657        1.7437535162
 H         -1.3580497900        4.1071181140        0.9071151857
 H          1.1671876393        5.4565760730       -0.3019207260
 H          0.1104142907        4.2420301249       -1.1219488258
 H          1.6643390862        3.8598492241        1.5200258239
