  62
        -98.94593901
 C         -2.1128091143       -1.4919986536        0.0052277749
 C         -1.8343524796       -0.3726638413       -0.8157958340
 C         -2.8986223870        0.6391697951       -0.8936120131
 C         -4.0528117049        0.4373341748       -0.2324054763
 C         -5.1971212917        1.4074118821       -0.1884157589
 C         -5.0738184532        2.3584577613        1.0103784548
 C         -3.6953019383        3.0050647439        1.1476987529
 H         -3.7376584862        3.6789042260        2.0061596869
 H         -2.9601998329        2.2317577635        1.3826255275
 C         -3.2325010226        3.7836188473       -0.0915697233
 H         -4.0890369145        4.0103488673       -0.7275370712
 H         -2.8097401095        4.7364931916        0.2333104480
 C         -2.1569573572        3.0765086783       -0.9185056403
 H         -1.3441973670        2.7554894737       -0.2623501275
 H         -1.7466567609        3.7999736150       -1.6280540586
 C         -2.6298232019        1.8610616502       -1.7259956540
 H         -3.5083737106        2.1280552746       -2.3168053026
 H         -1.8267997151        1.5811436222       -2.4140086132
 H         -5.8349218820        3.1350510727        0.9141017934
 H         -5.2794180778        1.7935350489        1.9226715769
 H         -5.2213928771        1.9760939085       -1.1159090511
 H         -6.1251808559        0.8404773945       -0.0968404371
 O         -4.2936407584       -0.6669428388        0.5203723999
 C         -3.3262245255       -1.6455808665        0.6758414650
 O         -3.6605307443       -2.5883860243        1.4217875851
 H          1.4820181942       -2.4795849066       -0.8846558632
 C          1.4026033038       -1.9791816995        0.0672826289
 C          0.1924165028       -1.9544040442        0.7393603628
 C          0.1238478277       -1.2909548197        1.9623595162
 C          1.2376218061       -0.6726090718        2.4963586495
 C          2.4441724180       -0.6915509571        1.8175259549
 C          2.5200760850       -1.3425962414        0.5942973821
 N          3.7327380161       -1.3477778402       -0.1127431214
 S          4.6325120408        0.0611061715       -0.1556810760
 O          5.3819160986       -0.0111588244       -1.3910127930
 O          5.4239954097        0.1645301008        1.0461463937
 C          3.4584008722        1.4043476482       -0.2152518517
 C          2.4631925745        1.3770305621       -1.1714626372
 C          1.5524473013        2.4190179331       -1.2204855097
 C          1.6533333126        3.4683335155       -0.3202885631
 C          2.6616758691        3.4844257901        0.6309449059
 C          3.5729756361        2.4423948398        0.6873966362
 H          4.3674932168        2.4105327619        1.4154435698
 H          2.7374417237        4.3017805345        1.3300435791
 H          0.9397968445        4.2764509396       -0.3605293302
 H          0.7601798227        2.3916694074       -1.9506521622
 H          2.3917711017        0.5503369349       -1.8591484925
 H          3.6766426431       -1.7747986432       -1.0255904722
 H          3.3238916407       -0.2153465868        2.2191777200
 H          1.1681705336       -0.1662846390        3.4471898354
 H         -0.8224738694       -1.2646972226        2.4860352464
 C         -1.0657385219       -2.5776186499        0.1867261379
 H         -1.4679925501       -3.2667398993        0.9425142995
 C         -0.8654987533       -3.3385590577       -1.1068627975
 C         -0.3069739165       -4.7288902390       -1.0801761954
 C         -1.7532745373       -4.5076775634       -1.4044862302
 H         -2.0837992574       -4.6587807114       -2.4212527228
 H         -2.4932704235       -4.7709196768       -0.6627212227
 H          0.3541044222       -5.0371984091       -1.8762611623
 H         -0.0618333271       -5.1500582683       -0.1169115729
 H         -0.5994546113       -2.6947457716       -1.9373214826
 O         -0.7599417510       -0.2236981953       -1.4526582284
