  62
        -98.93869977
 C          1.8260474754        0.9495589448        0.3499672680
 C          2.4499833517        0.2466314884       -0.7054076568
 C          3.5407616933       -0.6787875522       -0.3339337664
 C          3.8531944952       -0.8258411546        0.9670992971
 C          4.9395449128       -1.6720614728        1.5761072520
 C          6.3374421119       -1.0557973538        1.4051104340
 C          6.6259477880       -0.4917798974        0.0164350743
 H          7.5966989090        0.0092097168        0.0571822257
 H          5.8796805530        0.2674024893       -0.2244058863
 C          6.6804790505       -1.5244916349       -1.1068214723
 H          7.4537050014       -2.2616008419       -0.8788241793
 H          6.9814766366       -0.9986554614       -2.0165065243
 C          5.3738578624       -2.2656443605       -1.3986401116
 H          5.1908277678       -3.0442150535       -0.6628118591
 H          5.4948907800       -2.7722719810       -2.3606685394
 C          4.1478461145       -1.3676453852       -1.5322576230
 H          3.3333219464       -1.9525639735       -1.9771837750
 H          4.3612976974       -0.5759434806       -2.2594739471
 H          7.0811148509       -1.8145170085        1.6545889246
 H          6.4356747035       -0.2380649647        2.1232456789
 H          4.9055769877       -2.6764748746        1.1644249836
 H          4.7198365914       -1.7434003452        2.6438104656
 O          3.1972900094       -0.1500447043        1.9547553040
 C          2.1786519644        0.7414779699        1.6817177326
 O          1.6649989087        1.2682381004        2.6907761409
 O          2.1215066504        0.3814845661       -1.9129410938
 C          0.7081536674        1.9324364018        0.0535942169
 C         -0.4407912875        1.2240154715       -0.6233177087
 C         -1.1044401200        1.7295914948       -1.7330756122
 C         -2.1507016894        1.0259527361       -2.3056944706
 C         -2.5641614824       -0.1845815241       -1.7822544268
 C         -1.9216498439       -0.6881466684       -0.6575662664
 C         -0.8765924287        0.0193292551       -0.0843477938
 H         -0.3757688052       -0.3770433617        0.7908797937
 N         -2.3444889979       -1.9077179516       -0.1033724661
 S         -3.9882046229       -2.1812618922        0.0430846548
 O         -4.1217963871       -3.0920678499        1.1585190187
 O         -4.5164061194       -2.6477491520       -1.2147746848
 C         -4.6985024696       -0.5931263958        0.4402500096
 C         -4.2535665887        0.0547609533        1.5756525391
 C         -4.7727033271        1.3019448749        1.8822401159
 C         -5.7238017900        1.8768969312        1.0529123220
 C         -6.1647820564        1.2109919018       -0.0798930698
 C         -5.6470304408       -0.0357198377       -0.3928114495
 H         -5.9579396318       -0.5869945438       -1.2652513925
 H         -6.9058806651        1.6594662912       -0.7215694666
 H         -6.1226269635        2.8496793813        1.2934071404
 H         -4.4297094419        1.8205936230        2.7632266226
 H         -3.5154402712       -0.4189290956        2.2035108834
 H         -1.8484656173       -2.1743523070        0.7336928748
 H         -3.3627218115       -0.7534729636       -2.2299498006
 H         -2.6485401168        1.4244283258       -3.1762599248
 H         -0.7962126423        2.6703030309       -2.1580308960
 H          0.3552228131        2.2912182527        1.0318103992
 C          1.2423988562        3.1105981865       -0.7339370799
 C          0.6160772119        4.4640603752       -0.5896350753
 C          1.9684748046        4.1977266949       -0.0020015517
 H          2.8338118630        4.6448735933       -0.4678397308
 H          2.0529388004        4.1016917794        1.0710397616
 H          0.5546620399        5.0995100500       -1.4601780170
 H         -0.2189316953        4.5595900527        0.0876329652
 H          1.6245695440        2.8209123588       -1.7058863134
