  62
        -98.93449007
 C          1.8586713991        1.5899189647        0.3925508158
 C          1.9249437698        0.4490672861        1.2300585030
 C          2.9912958668       -0.5298820602        0.9531131423
 C          3.8204066868       -0.3003340914       -0.0819596750
 C          4.9316900934       -1.1872680051       -0.5712580594
 C          4.4104140414       -2.3803013960       -1.3967109442
 C          3.0970047838       -2.9887235663       -0.9064317302
 H          2.3482611193       -2.1987569539       -0.8206380080
 H          2.7499198668       -3.6839813551       -1.6753990387
 C          3.1850848923       -3.7595534824        0.4094203928
 H          2.1795954725       -4.1057216833        0.6623027834
 H          3.8100006620       -4.6435307818        0.2598318518
 C          3.7485504927       -2.9863868586        1.6008303874
 H          4.8140982024       -2.8182757713        1.4685640603
 H          3.6424510606       -3.6244984648        2.4835683321
 C          3.0389585816       -1.6753447846        1.9349566164
 H          3.4838874164       -1.2734029022        2.8542842752
 H          1.9943529110       -1.8868783723        2.1884128469
 H          5.1836343462       -3.1494168643       -1.4246417078
 H          4.2455452087       -2.0307015658       -2.4183477812
 H          5.5711975189       -0.5748865818       -1.2102560392
 H          5.5293217767       -1.5207751635        0.2726020476
 O          3.7010298772        0.7918610112       -0.8833204931
 C          2.7266521214        1.7583177381       -0.6865066378
 O          2.7583913114        2.6803161905       -1.5209261553
 O          1.1184346809        0.2554097871        2.1802476299
 C          0.7524555153        2.5861602212        0.6971837489
 C         -0.4936694782        2.1257263126       -0.0136844951
 C         -0.5323740887        2.0168079179       -1.4011761850
 C         -1.6604099525        1.5270664973       -2.0333205206
 C         -2.7590018022        1.1132522491       -1.2985336960
 C         -2.7185422065        1.1959201635        0.0865429817
 C         -1.5958647527        1.7141479933        0.7190317809
 H         -1.5651237041        1.7651966169        1.7987274213
 N         -3.8069277367        0.7202540165        0.8390014341
 S         -4.3958131984       -0.7923138404        0.4228939146
 O         -5.3488050882       -0.6566541163       -0.6506899519
 O         -4.9139375903       -1.3521358493        1.6515362740
 C         -2.9822381430       -1.7224778040       -0.1491782264
 C         -1.8590438252       -1.7886791932        0.6513893699
 C         -0.7556790206       -2.4926258144        0.1990859629
 C         -0.7937887130       -3.1238853873       -1.0342224013
 C         -1.9318555612       -3.0556744274       -1.8224835778
 C         -3.0358088311       -2.3448787037       -1.3799266587
 H         -3.9361354298       -2.2556203162       -1.9660144250
 H         -1.9595396288       -3.5482944772       -2.7810441342
 H          0.0702422404       -3.6689562556       -1.3802654834
 H          0.1324319097       -2.5295042722        0.8099194793
 H         -1.8399898445       -1.2917986504        1.6081939846
 H         -3.6716554287        0.7891261860        1.8374646004
 H         -3.6408826483        0.7171551219       -1.7758324514
 H         -1.6822475747        1.4547140875       -3.1100117423
 H          0.3369828291        2.3102012403       -1.9708799888
 H          0.5720058497        2.4813098930        1.7785606722
 C          1.1297546079        4.0359850550        0.4353998798
 C          0.3950502301        4.9245713033       -0.5197295733
 C          0.2458966822        5.1317816070        0.9553957920
 H          0.7031459827        5.9972777835        1.4105257062
 H         -0.6910282076        4.8392860540        1.4062031743
 H          0.9772917350        5.6333390906       -1.0886654877
 H         -0.4444387736        4.5177855778       -1.0611598213
 H          2.1985702805        4.2022043785        0.5111015692
