  62
        -98.94389682
 C          1.8439888172       -0.3541792491        1.0305801207
 C          2.0268757262       -0.1821004599       -0.3626452499
 C          3.4148848332       -0.2707067516       -0.8363992161
 C          4.4057197937       -0.5352191594        0.0343969180
 C          5.8647634471       -0.6859482504       -0.3015400050
 C          6.6278631383        0.6431471915       -0.3831567458
 C          6.3177697440        1.4960854775       -1.6138513841
 H          7.0722007477        2.2841990388       -1.6557662109
 H          6.4306687588        0.8894082931       -2.5129031376
 C          4.9267410508        2.1451326519       -1.6002644803
 H          4.5255406937        2.1263795824       -0.5844441533
 H          5.0115220014        3.1944150655       -1.8917982424
 C          3.9141222000        1.4944779777       -2.5429622283
 H          4.2407890780        1.6223343348       -3.5774755744
 H          2.9566094839        2.0087989242       -2.4270311212
 C          3.6805562467       -0.0002830995       -2.2865248749
 H          2.7962100007       -0.3112380823       -2.8488982510
 H          4.5363521402       -0.5797521228       -2.6327715422
 H          6.4222921680        1.2199528179        0.5214047861
 H          7.6942272002        0.4061878605       -0.3913331400
 H          6.3061813692       -1.2877382571        0.4958093884
 H          5.9698274305       -1.2258352170       -1.2430372555
 O          4.1826174225       -0.7236217934        1.3624017619
 C          2.9068927788       -0.6226079972        1.8933638769
 O          2.8486186600       -0.7990538197        3.1273163855
 H         -2.0518314161       -0.0719276472        0.4726331741
 C         -1.6787676286       -1.0808436211        0.5101333927
 C         -0.4302727835       -1.3453561074        1.0500807151
 C          0.0153380654       -2.6648408731        1.0856022687
 C         -0.7648686860       -3.6877545428        0.5845554473
 C         -2.0057138858       -3.4168799202        0.0337458576
 C         -2.4628649390       -2.1061014854       -0.0037000355
 N         -3.7357989660       -1.8055694058       -0.5132705720
 S         -3.9465287611       -0.4971205784       -1.5406554892
 O         -5.2143259548       -0.7629180991       -2.1894111654
 O         -2.8157351816       -0.3088377944       -2.4171748984
 C         -4.1481175795        0.9026002278       -0.4602362606
 C         -5.0942867461        0.8291211564        0.5431373441
 C         -5.2848645530        1.9290183790        1.3639065296
 C         -4.5363220338        3.0792561526        1.1635833621
 C         -3.5919881638        3.1375503164        0.1495376445
 C         -3.3934539656        2.0390571509       -0.6725984575
 H         -2.6605138715        2.0342073776       -1.4644245165
 H         -3.0081714408        4.0314819588       -0.0039491116
 H         -4.6865940185        3.9355509199        1.8022340626
 H         -6.0156296498        1.8881034633        2.1553308695
 H         -5.6602567380       -0.0794878587        0.6617314921
 H         -4.2513866183       -2.6074807788       -0.8474128318
 H         -2.6150553154       -4.2148211009       -0.3631127967
 H         -0.4044035190       -4.7050482672        0.6177923767
 H          0.9865133783       -2.8748679194        1.5136082421
 C          0.4531068368       -0.2690087379        1.6335918462
 H          0.5785791356       -0.4849196490        2.7049751414
 C         -0.1109985288        1.1279083352        1.4838517013
 C         -1.1060442924        1.6405372304        2.4800682070
 C          0.2919335087        2.1800312387        2.4712018641
 H          0.4568953610        3.1852463039        2.1137413668
 H          0.9628256022        1.8836205520        3.2646797437
 H         -1.9055941643        2.2760810744        2.1311297988
 H         -1.3868994919        0.9793452985        3.2857113767
 H         -0.2172760032        1.4279274086        0.4473968542
 O          1.0862054436        0.0330206783       -1.1706538033
