  62
        -98.93661383
 C          1.9344311486        1.2407121530       -0.1024014687
 C          3.0332847820        1.1324821453        0.7870816460
 C          4.2507463376        0.4743939093        0.2827270198
 C          4.2666648512        0.0013791310       -0.9770083418
 C          5.3603841139       -0.6693664999       -1.7818556520
 C          6.6363130663       -1.1612656023       -1.1044586225
 C          6.4424127488       -2.3577702725       -0.1728468467
 H          6.2150108805       -3.2367775444       -0.7814238465
 H          7.3857925687       -2.5468247753        0.3438278121
 C          5.3285499533       -2.2159146803        0.8616009243
 H          5.2829207259       -3.1467300925        1.4336093393
 H          4.3677486984       -2.1046765627        0.3545220293
 C          5.5006338433       -1.0691816121        1.8553954770
 H          6.4679930321       -1.1568858254        2.3539211608
 H          4.7216325117       -1.1728792105        2.6157375871
 C          5.3824141889        0.3441108920        1.2611822361
 H          5.1597010026        1.0357370940        2.0789853097
 H          6.3196674397        0.6623328577        0.8109781634
 H          7.1233905955       -0.3432246690       -0.5819723462
 H          7.3137019631       -1.4732406883       -1.9040844712
 H          5.6366668101        0.0505401863       -2.5602571974
 H          4.8817919225       -1.5085526541       -2.2970596737
 O          3.1831099293        0.1208651680       -1.7967140653
 C          1.9992616323        0.7243910945       -1.3954444213
 O          1.1194935984        0.7193052188       -2.2772174903
 O          3.0043954408        1.5877758957        1.9617891638
 C          0.7002941645        1.9525787812        0.4237301350
 C         -0.3276885326        0.9836336593        0.9488512148
 C         -0.8896376356        1.1530728823        2.2088479289
 C         -1.8447750021        0.2687590652        2.6803907765
 C         -2.2636937424       -0.7961028873        1.9036572005
 C         -1.7117014985       -0.9710879884        0.6406624227
 C         -0.7513870998       -0.0860430350        0.1717383894
 H         -0.3278394495       -0.2265557306       -0.8118576635
 N         -2.1439502997       -2.0390366884       -0.1658392457
 S         -3.7980146087       -2.2624805661       -0.3109649302
 O         -4.2839043458       -2.9938545925        0.8329799044
 O         -3.9891567779       -2.8996205444       -1.5944798032
 C         -4.4887906206       -0.6176213976       -0.3124644836
 C         -4.1505515957        0.2274108177       -1.3509920115
 C         -4.6375328674        1.5245130094       -1.3453914960
 C         -5.4472609379        1.9529710329       -0.3046416165
 C         -5.7830763737        1.0905499959        0.7272022646
 C         -5.2992235324       -0.2079318381        0.7267085289
 H         -5.5343334636       -0.9108402727        1.5090423035
 H         -6.4152011536        1.4257596397        1.5335053588
 H         -5.8171438468        2.9659455056       -0.3004090175
 H         -4.3752173482        2.1967999722       -2.1463352548
 H         -3.5192363066       -0.1367674244       -2.1466181144
 H         -1.6930706176       -2.0673779590       -1.0688372130
 H         -3.0006386384       -1.4993443069        2.2559948539
 H         -2.2674169280        0.4089019634        3.6632828907
 H         -0.5620716869        1.9769785901        2.8255037757
 H          1.0673096484        2.5372621790        1.2818850034
 C          0.1185112935        2.9428444451       -0.5773248087
 C         -1.1617282029        2.7251081648       -1.3201370646
 C         -1.0998443325        3.7447351357       -0.2254540832
 H         -1.1222446251        4.7916526344       -0.4865634409
 H         -1.5980858408        3.5062869511        0.7019877028
 H         -1.2036975036        3.0578704042       -2.3459955989
 H         -1.7110442667        1.8158359915       -1.1356711806
 H          0.9019423994        3.4624144906       -1.1208070951
