  62
        -98.94186124
 C         -1.7116155584       -0.1125088790        0.4849505105
 C         -2.8323412198       -0.8154307151        0.9990152694
 C         -4.1405043881       -0.1816331894        0.8032326202
 C         -4.2122790763        1.0302675470        0.2247696927
 C         -5.4691879775        1.8170133587       -0.0302181010
 C         -6.1950218781        1.4264382666       -1.3250600401
 C         -6.9111241956        0.0756307139       -1.2877143892
 H         -7.5594576318        0.0339027845       -0.4119564061
 H         -7.5522628956        0.0288659314       -2.1702482495
 C         -5.9730240821       -1.1395559794       -1.2947964204
 H         -4.9790408971       -0.8295865381       -1.6263619086
 H         -6.3348430944       -1.8746987971       -2.0172256901
 C         -5.8474894219       -1.8516191040        0.0523409496
 H         -6.8123524443       -2.2811412319        0.3304350393
 H         -5.1335909247       -2.6719129391       -0.0588735713
 C         -5.3630865421       -0.9534456762        1.1982523473
 H         -6.1583754870       -0.2757426909        1.5074995828
 H         -5.0951656658       -1.5905860531        2.0445380406
 H         -5.4735841780        1.4344634631       -2.1456543958
 H         -6.9374055671        2.2015931568       -1.5288651522
 H         -6.1481674756        1.7089814605        0.8160955853
 H         -5.1700710609        2.8647446704       -0.1053473469
 O         -3.1088508792        1.7074437884       -0.1866296322
 C         -1.8355396237        1.1529112765       -0.0911060207
 O         -0.9382227676        1.8906820394       -0.5379554964
 H          1.7776544872        0.3738382831       -0.7034061570
 C          1.7082085337        0.6701556551        0.3291536735
 C          0.6746653883        0.2061547257        1.1265359963
 C          0.5822029203        0.6682685234        2.4370141240
 C          1.4969334387        1.5771748326        2.9315395658
 C          2.5364374931        2.0284304111        2.1368640929
 C          2.6353325390        1.5758780093        0.8270183195
 N          3.6748992331        2.0149483652       -0.0022296829
 S          4.3179471359        1.0108179593       -1.1652103841
 O          5.6588736464        1.5175716479       -1.3718946050
 O          3.4809896710        0.9706631665       -2.3376259077
 C          4.3919791920       -0.6076986213       -0.4148567104
 C          5.0164967888       -0.7433180185        0.8092704800
 C          5.0723954631       -1.9958404381        1.3984234742
 C          4.5097456053       -3.0880195902        0.7557889168
 C          3.8950231817       -2.9380208077       -0.4773585128
 C          3.8333254398       -1.6862590114       -1.0691459712
 H          3.3577958361       -1.5228227283       -2.0232228277
 H          3.4598130307       -3.7885536890       -0.9778600712
 H          4.5508368503       -4.0619848679        1.2172736253
 H          5.5519536446       -2.1164284838        2.3563241766
 H          5.4516015411        0.1220509722        1.2815938915
 H          4.3699880625        2.5977820684        0.4385041766
 H          3.2542679153        2.7373422457        2.5204286219
 H          1.4071647048        1.9330237054        3.9468122534
 H         -0.2279484544        0.3133108107        3.0592387848
 C         -0.3528649992       -0.7749720908        0.6262911004
 H         -0.5039815455       -1.5362887963        1.4097871163
 C          0.1059110024       -1.5206952289       -0.6180364189
 C         -0.8788647590       -2.1937293641       -1.5249964303
 C         -0.1201941208       -0.9931706889       -2.0016840427
 H          0.6590219388       -1.1278195661       -2.7383571457
 H         -0.6437822464       -0.0548650098       -2.1022504232
 H         -0.6258512838       -3.1602335359       -1.9337172127
 H         -1.9288034031       -2.0761465246       -1.2992403570
 H          1.0411669000       -2.0454508281       -0.4466366972
 O         -2.7417759038       -1.9196554734        1.5975242901
