  62
        -98.94390008
 C         -1.7768660037       -0.4877842068       -0.4031449942
 C         -3.0209640506       -1.0760883357       -0.7327553879
 C         -4.1351596932       -0.7784784697        0.1769816544
 C         -3.9151861935       -0.0008617957        1.2531486929
 C         -4.9692541647        0.4230254125        2.2336702168
 C         -5.6111594921        1.7542807591        1.8186126237
 C         -6.0611097894        1.7940035247        0.3581919693
 H         -6.5263139608        2.7672641617        0.1875105106
 H         -5.1817543312        1.7402374718       -0.2875935164
 C         -7.0443426608        0.6820172241       -0.0331871075
 H         -7.4931786708        0.2515683066        0.8627873761
 H         -7.8531621679        1.1203625400       -0.6216328407
 C         -6.4329591349       -0.4356947643       -0.8801555620
 H         -5.9028814680       -0.0015919234       -1.7316956651
 H         -7.2484582591       -1.0450055245       -1.2790662357
 C         -5.4735743466       -1.3808433983       -0.1458509288
 H         -5.9532768262       -1.7623427960        0.7580199888
 H         -5.2691341436       -2.2269529390       -0.8087335622
 H         -6.4664668523        1.9426215821        2.4700630674
 H         -4.8828223211        2.5533698077        1.9746465220
 H         -5.7291306746       -0.3531881916        2.3014122809
 H         -4.5002771429        0.5451974786        3.2115647225
 O         -2.7023501300        0.5315361331        1.5475476448
 C         -1.6043183632        0.3114442796        0.7274326752
 O         -0.5595469242        0.8672621152        1.1101695798
 O         -3.1891242490       -1.8186578024       -1.7381775345
 C         -0.5886947675       -0.7368830620       -1.3113463887
 C          0.5543074701       -1.3872436134       -0.5705691628
 C          0.3001547287       -2.2894789732        0.4580810545
 C          1.3347156822       -2.8797298122        1.1594662971
 C          2.6515785961       -2.5972523969        0.8410766785
 C          2.9177305027       -1.7217741905       -0.2008967855
 C          1.8765635753       -1.1238821481       -0.9002819013
 H          2.1053011438       -0.4403038541       -1.7036979102
 N          4.2655655339       -1.4358951412       -0.5217418390
 S          5.0586589256       -0.4128156412        0.5449707135
 O          6.4101197999       -0.2909739207        0.0476126081
 O          4.9075688728       -0.9306701987        1.8794932387
 C          4.2067017752        1.1431795066        0.3629482350
 C          2.9581124446        1.2867407155        0.9338055267
 C          2.2427285478        2.4504629690        0.6984944011
 C          2.7898116544        3.4477360379       -0.0940599171
 C          4.0503366477        3.2929910635       -0.6527608229
 C          4.7633551564        2.1259474813       -0.4328694632
 H          5.7413652851        1.9584094056       -0.8547052164
 H          4.4728033095        4.0735464915       -1.2651252406
 H          2.2275586231        4.3501089025       -0.2778979556
 H          1.2531178391        2.5428036854        1.1173532278
 H          2.5485133196        0.4996627082        1.5459826639
 H          4.3831769607       -1.0775387112       -1.4601730284
 H          3.4714226532       -3.0288318543        1.3912336276
 H          1.1139064805       -3.5663373453        1.9629710537
 H         -0.7258857448       -2.5165404434        0.7137547089
 H         -0.9492221653       -1.4459323784       -2.0725615786
 C         -0.1817674739        0.5524729066       -1.9988726871
 C          0.3324549540        0.5420999162       -3.4069674912
 C         -1.0354687812        1.0779467465       -3.1124275341
 H         -1.2012925070        2.1425639732       -3.1789711752
 H         -1.8903495927        0.4840449994       -3.4019878142
 H          1.1071859956        1.2439458876       -3.6778715128
 H          0.4013732365       -0.4106880479       -3.9103913203
 H          0.2386978737        1.2737775849       -1.3066678991
