  62
        -98.94078688
 C          2.5777255906        1.3580736006        0.2468937201
 C          2.7806011904        0.5040896005       -0.8645723499
 C          3.6092960705       -0.6871065995       -0.6174590799
 C          4.1177939108       -0.9032417294        0.6082615800
 C          4.9320376109       -2.0997296193        1.0048148899
 C          4.0425809310       -3.2223433893        1.5566288802
 C          2.8382161608       -3.5498999294        0.6733674105
 H          2.3064027709       -4.3805938794        1.1428604007
 H          2.1516688808       -2.6990647194        0.6694872905
 C          3.1927132705       -3.9237806295       -0.7727458696
 H          4.2444625605       -4.2055900095       -0.8355389297
 H          2.6036537205       -4.7971156996       -1.0608155394
 C          2.8978567303       -2.8310127396       -1.8020525896
 H          1.8700654803       -2.4793913696       -1.6730590094
 H          2.9669839401       -3.2759457797       -2.7984524296
 C          3.8363773903       -1.6174611496       -1.7759035099
 H          4.8739969503       -1.9557680896       -1.8022592701
 H          3.6429433601       -1.0284591997       -2.6772733099
 H          4.6550476210       -4.1168234193        1.6837024802
 H          3.6718982812       -2.9207346292        2.5389578403
 H          5.4897432907       -2.4555122794        0.1407616799
 H          5.6360438210       -1.7932136392        1.7802563398
 O          3.9064061409       -0.0607381993        1.6508184599
 C          3.1259140209        1.0718623807        1.5013598700
 O          3.0030861011        1.7471932608        2.5424565099
 H          0.2297624903        0.9526674404       -1.2930264294
 C         -0.3345297595        1.3737044304       -0.4734776494
 C          0.2843835306        2.2791804405        0.3786477104
 C         -0.4496327692        2.8067487206        1.4334813305
 C         -1.7692490591        2.4348587806        1.6271028708
 C         -2.3807219593        1.5312398805        0.7765061110
 C         -1.6529273095        0.9947680204       -0.2778265191
 N         -2.2625233496        0.0616925203       -1.1426490689
 S         -2.8091294094       -1.3539399196       -0.4145471086
 O         -2.0507244592       -1.6589446595        0.7779468613
 O         -2.7996478896       -2.3556559997       -1.4582696785
 C         -4.4951855594       -0.9715505796        0.0096925517
 C         -4.9118222291       -1.0452263895        1.3241630318
 C         -6.2288857090       -0.7358556495        1.6272476120
 C         -7.1001725193       -0.3609044696        0.6159688321
 C         -6.6663734995       -0.2949585697       -0.6999541580
 C         -5.3515138696       -0.6033346397       -1.0096885182
 H         -4.9732186998       -0.5678993498       -2.0176427683
 H         -7.3470216397       -0.0032611898       -1.4834392279
 H         -8.1236259992       -0.1187979896        0.8551001323
 H         -6.5680645288       -0.7869992294        2.6494223421
 H         -4.1961071189       -1.3350495794        2.0769914416
 H         -1.6793154098       -0.1687786297       -1.9358684790
 H         -3.4061536392        1.2343900205        0.9255671312
 H         -2.3268885390        2.8508613707        2.4522355709
 H          0.0274255110        3.4958500607        2.1150397104
 C          1.7376767106        2.6261472805        0.1822550901
 H          2.0574229608        3.2225962106        1.0504728600
 C          2.0093859703        3.4542600004       -1.0676564100
 C          0.9700635401        3.7772227203       -2.0958276598
 C          1.4570649003        4.8457977904       -1.1674085600
 H          2.0895379402        5.6286989104       -1.5573575802
 H          0.7873826304        5.1667150305       -0.3835650599
 H          1.2831221699        3.8018048402       -3.1286543899
 H         -0.0298707498        3.3985899703       -1.9539707096
 H          3.0175186203        3.3064595104       -1.4403105102
 O          2.3048175102        0.7039792303       -2.0134956098
