  62
        -98.93721574
 C         -1.2650400900       -1.2818240308        0.4710104909
 C         -2.0976276000       -0.9112586317       -0.6106374594
 C         -3.3343681201       -0.1787505215       -0.2701167199
 C         -3.5658094501        0.1772200395        1.0064169098
 C         -4.7376970601        0.8847127099        1.6554380792
 C         -5.8235172802        1.5365034191        0.8042677787
 C         -5.3741261403        2.7883852786        0.0498454177
 H         -6.1763640003        3.0890617180       -0.6273843725
 H         -5.2303700003        3.5944300492        0.7739292271
 C         -4.0774113503        2.6525897781       -0.7448364622
 H         -3.8532196503        3.6266303477       -1.1887149829
 H         -3.2528100002        2.4147954786       -0.0687651820
 C         -4.1071338502        1.6249504972       -1.8737147014
 H         -3.1726955402        1.7231312868       -2.4334194014
 H         -4.9308784502        1.8505993666       -2.5540706315
 C         -4.2285698401        0.1589860375       -1.4289603702
 H         -5.2610170101       -0.1011765524       -1.2085467000
 H         -3.9004064800       -0.4706038931       -2.2614282397
 H         -6.2522120101        0.8082063186        0.1221571293
 H         -6.6210633902        1.8346796796        1.4901641685
 H         -5.2074727001        0.1376159704        2.3049239398
 H         -4.3021453402        1.6378097504        2.3204364386
 O         -2.6827096801       -0.1236461097        2.0054037400
 C         -1.5244589700       -0.8408030098        1.7689328506
 O         -0.8141501200       -1.0149621389        2.7802655907
 H          0.7927099799        0.4586020891        0.1375259696
 C          1.1527383399       -0.0937848016       -0.7184522800
 C          0.8194290000       -1.4350591017       -0.8559974389
 C          1.2570798301       -2.1152202225       -1.9842819884
 C          2.0041445000       -1.4589190332       -2.9471994689
 C          2.3572908199       -0.1306269231       -2.7927375200
 C          1.9234143499        0.5581685678       -1.6660433805
 N          2.2746560798        1.9015165680       -1.4476391116
 S          2.7022518498        2.3475419792        0.1080751081
 O          1.5249223797        2.5594377598        0.9129855279
 O          3.5579460397        3.5020876591       -0.0680495028
 C          3.6553192999        0.9680922498        0.7202285892
 C          4.8682770799        0.7124694594        0.1096499194
 C          5.6061202600       -0.3874807203        0.5137068903
 C          5.1181155700       -1.2143531995        1.5143286509
 C          3.9035056800       -0.9403323791        2.1229437107
 C          3.1616027499        0.1610161005        1.7243715098
 H          2.2097699299        0.3954725008        2.1759219396
 H          3.5201831500       -1.5802273385        2.9020055412
 H          5.6871600701       -2.0764746592        1.8243491216
 H          6.5538108600       -0.5997301006        0.0459318104
 H          5.2181859898        1.3827880588       -0.6585082111
 H          2.9054397598        2.2894772475       -2.1339181819
 H          2.9504557299        0.3747151464       -3.5393927604
 H          2.3259302501       -1.9937244539       -3.8277594385
 H          0.9913909202       -3.1500223627       -2.1232505776
 C          0.0211041801       -2.0608129009        0.2605204815
 H          0.5932548301       -1.9091618001        1.1915311014
 C         -0.1661596698       -3.5629119610        0.1124058127
 C         -1.3382388898       -4.2570924606        0.7382623033
 C         -1.2305421798       -4.1645934717       -0.7528398368
 H         -0.9932762597       -5.0634016122       -1.3031736861
 H         -1.8880803298       -3.4910335022       -1.2779884773
 H         -1.1761131697       -5.2143826002        1.2105765940
 H         -2.0737690898       -3.6427093002        1.2378497128
 H          0.7810541202       -4.0914828609        0.1566855231
 O         -1.8453304400       -1.1852164326       -1.8118667791
