  62
        -98.94443044
 C          1.7070845555        1.4450411163        0.5629504328
 C          2.6355581210        1.0062643755       -0.4132356116
 C          3.3959519379       -0.2034527879       -0.0673856292
 C          3.1465903421       -0.8553576802        1.0816680786
 C          3.8448722478       -2.0960317486        1.5691386831
 C          3.2859825298       -3.4033819037        0.9906974938
 C          3.6060426767       -3.6552021564       -0.4833301698
 H          4.6809470153       -3.5602422680       -0.6404758160
 H          3.3388802625       -4.6923501310       -0.6961420625
 C          2.8579690143       -2.7393054141       -1.4627473753
 H          2.4478627079       -3.3362125229       -2.2802248232
 H          2.0148122504       -2.2663640719       -0.9546826065
 C          3.7222647096       -1.6463290339       -2.0901647016
 H          3.0876605528       -1.0388150704       -2.7399773826
 H          4.5016351155       -2.0993648909       -2.7069905282
 C          4.3868831380       -0.7123467084       -1.0707793373
 H          5.2067872799       -1.2251173098       -0.5682723732
 H          4.7898741989        0.1497094657       -1.6078151013
 H          3.7083465623       -4.2233406741        1.5763605010
 H          2.2040359279       -3.4153905110        1.1366254721
 H          4.9101430845       -2.0254047710        1.3471993409
 H          3.7185278931       -2.1183116350        2.6539303875
 O          2.2072965217       -0.4313957200        1.9696076091
 C          1.4674064641        0.7125913701        1.7295841363
 O          0.6337107287        0.9755822424        2.6206534204
 H         -1.5737237895        2.0921167967        1.4168456948
 C         -1.5590848474        1.9108337889        0.3505193360
 C         -0.4070599751        2.1947924838       -0.3689891188
 C         -0.3886484130        1.9253526522       -1.7334090001
 C         -1.4999295091        1.3824598710       -2.3533385232
 C         -2.6432428028        1.0869085369       -1.6302478199
 C         -2.6674373113        1.3505167179       -0.2675090243
 N         -3.8099880132        1.0186241519        0.4863557459
 S         -4.3792575564       -0.5450355329        0.3094193343
 O         -5.2140075868       -0.6206160666       -0.8637103253
 O         -5.0295594165       -0.8623026713        1.5616709124
 C         -2.9369115011       -1.5735538637        0.0796606150
 C         -2.8868882222       -2.4356777998       -0.9969724978
 C         -1.7756682357       -3.2474782880       -1.1570059900
 C         -0.7333425432       -3.1790338692       -0.2458248394
 C         -0.7935614590       -2.3000785472        0.8245750722
 C         -1.9058338655       -1.4920764856        0.9945898571
 H         -1.9638151143       -0.8066598680        1.8255328222
 H          0.0197518670       -2.2262392157        1.5307493562
 H          0.1300927821       -3.8137199554       -0.3710570465
 H         -1.7233866615       -3.9293290091       -1.9902979463
 H         -3.7168255898       -2.4519981458       -1.6845493516
 H         -3.7239868754        1.2515491843        1.4655455822
 H         -3.5108233071        0.6474854240       -2.0957035208
 H         -1.4734086818        1.1750880737       -3.4122125615
 H          0.5131673593        2.1126050284       -2.2949356247
 C          0.8176564657        2.6672306220        0.3754328978
 H          0.5000864309        2.9656969157        1.3837818152
 C          1.4999062314        3.8495611834       -0.2760863861
 C          0.8677153725        5.2019718142       -0.1484289132
 C          2.1342112911        4.8935952510        0.5908854747
 H          3.0532754172        5.3507503961        0.2564920207
 H          2.0798197244        4.7590988176        1.6617410947
 H          0.9145228630        5.8736696370       -0.9916454802
 H         -0.0466263238        5.2759824683        0.4212911405
 H          1.9998892959        3.6123544432       -1.2044825866
 O          2.8423226439        1.5748315391       -1.5157360907
