  62
        -98.93810275
 C         -2.0593427185       -1.0998685143       -0.3504164276
 C         -3.1359055010       -1.1275120764        0.5734563560
 C         -4.3661210709       -0.4205223574        0.1848223667
 C         -4.4152340867        0.2062810143       -1.0027215907
 C         -5.5652128104        0.9597183381       -1.6228671318
 C         -6.3784819664        1.8872937653       -0.7101709346
 C         -5.5727352307        2.5710159661        0.4042430213
 H         -4.5034964709        2.4323913295        0.2337116417
 H         -5.7690721871        3.6445409221        0.3766100353
 C         -5.9363882839        2.0631420253        1.8016327396
 H         -7.0225921785        1.9701394366        1.8684602997
 H         -5.6264126460        2.8090847677        2.5374682661
 C         -5.2945683565        0.7362041318        2.2049403184
 H         -4.2217326633        0.8768698067        2.3630071175
 H         -5.7222266459        0.4338686037        3.1638811328
 C         -5.4704210146       -0.4159182808        1.2023067712
 H         -5.3772972938       -1.3561813646        1.7524478993
 H         -6.4505925010       -0.3842631221        0.7328866541
 H         -6.8275374609        2.6465284589       -1.3528403450
 H         -7.2003309688        1.3300691038       -0.2628384825
 H         -6.2388723996        0.2319660714       -2.0847463094
 H         -5.1188169836        1.5425642189       -2.4323146278
 O         -3.3602673772        0.2048176558       -1.8636308276
 C         -2.1636107305       -0.4299405420       -1.5680586011
 O         -1.3089442621       -0.3180244354       -2.4699599782
 O         -3.0757545931       -1.7329202591        1.6760739739
 C         -0.7818678356       -1.8151614605        0.0595761733
 C          0.2394658918       -0.8060447110        0.5270711824
 C          0.4812132049       -0.6278406521        1.8849928279
 C          1.3924336928        0.3174157292        2.3222682057
 C          2.0818214744        1.1025122949        1.4158086495
 C          1.8471566366        0.9312546535        0.0570735720
 C          0.9403942052       -0.0242874283       -0.3804129362
 H          0.7446779636       -0.1317700253       -1.4363724903
 N          2.5373336182        1.7256252636       -0.8718149424
 S          4.1718774435        1.9807843569       -0.6388856734
 O          4.3660708747        3.0429567137        0.3175629463
 O          4.7145481731        2.2166241201       -1.9584429874
 C          4.7971998342        0.4493473483        0.0312815786
 C          4.6103024917       -0.7072514497       -0.6996888545
 C          5.0667516757       -1.9079426242       -0.1813682051
 C          5.6989997249       -1.9321241997        1.0524854909
 C          5.8834904979       -0.7618111876        1.7716424126
 C          5.4271231119        0.4421081408        1.2590087150
 H          5.5454826271        1.3749479900        1.7859664709
 H          6.3769877577       -0.7830141248        2.7299031302
 H          6.0499650949       -2.8695909118        1.4539711094
 H          4.9240977225       -2.8194884443       -0.7391224007
 H          4.1174319199       -0.6560528735       -1.6573876670
 H          2.3167120870        1.5178525291       -1.8342045080
 H          2.7824496317        1.8556732022        1.7382865657
 H          1.5658102132        0.4474672783        3.3795236933
 H         -0.0671794098       -1.2260305118        2.5981725177
 H         -1.0654332404       -2.4280022608        0.9254368365
 C         -0.2381502561       -2.7305313072       -1.0188062388
 C          0.7476270519       -3.7934460903       -0.6398098041
 C         -0.6495121808       -4.1710901576       -1.0285547935
 H         -0.8103185189       -4.6536282158       -1.9810607515
 H         -1.3239739617       -4.5038620591       -0.2531464916
 H          1.5488654701       -4.0198811123       -1.3261043557
 H          1.0223567578       -3.8702136564        0.4011192568
 H         -0.1167415818       -2.2475083383       -1.9794238585
