  62
        -98.95212698
 C          2.3578202775        0.3373962607        0.0424251121
 C          1.5182492299       -0.2330693040       -0.9421263646
 C          1.5212128705       -1.6991282671       -1.0219460032
 C          2.2959500919       -2.4013451348       -0.1754673975
 C          2.4083543160       -3.8982292881       -0.1539058232
 C          1.4131635670       -4.5366565708        0.8231607279
 C         -0.0249547897       -4.0452614592        0.6574361172
 H         -0.6434728331       -4.6109800495        1.3586962881
 H         -0.0898416951       -2.9969728490        0.9584162932
 C         -0.5929124637       -4.1970803455       -0.7605205298
 H         -1.6103548127       -4.5869213374       -0.6854516087
 H         -0.0055227724       -4.9247547653       -1.3226693725
 C         -0.6760868783       -2.8855530550       -1.5439229357
 H         -1.1374161955       -2.1239652019       -0.9100292226
 H         -1.3311769561       -3.0414044107       -2.4055779059
 C          0.6563008697       -2.3375936679       -2.0719785689
 H          1.2004757109       -3.1301814985       -2.5907704839
 H          0.4300393573       -1.5467760734       -2.7931653502
 H          1.4469193226       -5.6197821395        0.6868879708
 H          1.7339601974       -4.3124598282        1.8432637986
 H          2.2389921738       -4.2801484095       -1.1591016051
 H          3.4223299916       -4.1576859046        0.1569546454
 O          3.0705494466       -1.8195613961        0.7767138025
 C          3.1077129867       -0.4423376476        0.9204604271
 O          3.8414929603       -0.0388580275        1.8474908850
 H          0.4373982419        0.8630352228        1.6499251668
 C          0.1407720532        1.7690114919        1.1414574015
 C          1.0510955239        2.4314379023        0.3282770620
 C          0.6465579310        3.6032329416       -0.2997758285
 C         -0.6445448309        4.0760324597       -0.1394060185
 C         -1.5631887018        3.3821697571        0.6267749555
 C         -1.1644556146        2.2150224853        1.2677025645
 N         -2.0649029623        1.4561226803        2.0445334919
 S         -2.3877893616       -0.1064681012        1.5277868445
 O         -3.3600450251       -0.6181405413        2.4702889818
 O         -1.1604648361       -0.8487000942        1.4123810444
 C         -3.1696159688        0.1015308164       -0.0628972088
 C         -4.5459876300       -0.0023027377       -0.1340968302
 C         -5.1754123077        0.2126169809       -1.3489563217
 C         -4.4209989719        0.5362389885       -2.4669374978
 C         -3.0420347172        0.6411765293       -2.3769190607
 C         -2.4031191577        0.4240918609       -1.1650307290
 H         -1.3291117236        0.4955872714       -1.0840195449
 H         -2.4470337145        0.8917126618       -3.2404538529
 H         -4.9091974964        0.7067777553       -3.4135563300
 H         -6.2479577414        0.1288488915       -1.4195726004
 H         -5.0885302516       -0.2587739331        0.7615812771
 H         -2.9399339139        1.9281248431        2.2288116768
 H         -2.5784140647        3.7351096801        0.7289847919
 H         -0.9446144288        4.9870535518       -0.6341943418
 H          1.3415643827        4.1439173455       -0.9212000191
 C          2.4350088575        1.8472934164        0.1820151101
 H          2.9932613879        2.0411487175        1.1101128223
 C          3.2084196916        2.4303173605       -0.9843983529
 C          4.0386434999        3.6649668547       -0.8056614942
 C          4.7033931839        2.3332796193       -0.9785115819
 H          5.2109087172        2.1237286432       -1.9081386932
 H          5.1636588235        1.8711925801       -0.1169478073
 H          4.0603231138        4.1162167541        0.1748301668
 H          4.0949235090        4.3716208362       -1.6199520673
 H          2.7019571627        2.2838392134       -1.9317169792
 O          0.8125255014        0.4528536092       -1.7286184616
