  62
        -98.94223351
 C         -1.3104385398       -1.6007042184        0.2785615143
 C         -0.5396662860       -2.5344488018       -0.4499210418
 C          0.8697220894       -2.6580848430       -0.0532093008
 C          1.3380207401       -1.8995587733        0.9544712273
 C          2.7728058641       -1.8222339878        1.3923281937
 C          3.5637786478       -0.9180007446        0.4252117185
 C          4.6370960225       -1.6425554663       -0.3888463521
 H          5.4995569541       -1.8380963346        0.2523670027
 H          4.9583741987       -0.9599165696       -1.1787967311
 C          4.2147338785       -2.9712509539       -1.0227221600
 H          4.2483673766       -3.7628258731       -0.2723199974
 H          4.9682587993       -3.2202440214       -1.7730463512
 C          2.8330022105       -2.9847213423       -1.6894625330
 H          2.9029868974       -3.5672331258       -2.6107846715
 H          2.5317354608       -1.9750818642       -1.9750543293
 C          1.7204340071       -3.6202129566       -0.8334151133
 H          2.1534929408       -4.3636001694       -0.1583661352
 H          1.0230420583       -4.1414362431       -1.4959684713
 H          4.0479468273       -0.1208733714        0.9912408160
 H          2.8558001097       -0.4350147173       -0.2535613922
 H          3.2044857893       -2.8202250911        1.4248011862
 H          2.7838461279       -1.4004531740        2.3975338112
 O          0.5564718494       -1.0407406006        1.6587342634
 C         -0.7759979716       -0.8499313637        1.3254913359
 O         -1.3645738447       -0.0042599773        2.0239342726
 O         -1.0076575338       -3.2235832338       -1.3985520178
 C         -2.7273033318       -1.2950653912       -0.1700273993
 C         -2.8299865657        0.1677713782       -0.5345904864
 C         -3.9732755533        0.9294773585       -0.3252335332
 C         -3.9827379606        2.2776201141       -0.6417281069
 C         -2.8521877937        2.9016317582       -1.1380338818
 C         -1.7042919820        2.1455382193       -1.3552551847
 C         -1.7193927398        0.7857424540       -1.0934763093
 H         -0.8278310017        0.2103378926       -1.2878807837
 N         -0.5244183181        2.7408733620       -1.8309530737
 S          1.0049315093        2.2589556707       -1.3835705352
 O          1.8735569534        3.2216880135       -2.0285312217
 O          1.2362435681        0.8807797799       -1.7456717484
 C          1.2049025735        2.4386903242        0.3852183829
 C          0.1489306714        2.5690269236        1.2619925040
 C          0.4176838918        2.6759432839        2.6188977536
 C          1.7243647037        2.6512474291        3.0751215667
 C          2.7767270742        2.5287888544        2.1803520931
 C          2.5153730714        2.4229528191        0.8253721405
 H          3.3008858927        2.3313710532        0.0921323564
 H          3.7954213397        2.5127717275        2.5341053156
 H          1.9236748376        2.7256821672        4.1326673162
 H         -0.4062056605        2.7576594299        3.3089409939
 H         -0.8695541559        2.5615918622        0.9108591274
 H         -0.5635175792        3.7428442843       -1.9456407601
 H         -2.8506474487        3.9601127823       -1.3486266301
 H         -4.8776618009        2.8578586167       -0.4763541719
 H         -4.8531954167        0.4699368054        0.0944679001
 H         -2.8878080805       -1.8958672037       -1.0780910981
 C         -3.7361843673       -1.7149385156        0.8792647923
 C         -5.0920384046       -2.2116943593        0.4771801256
 C         -4.0728197034       -3.1686382972        1.0157849704
 H         -4.2142906572       -3.5749255015        2.0059022048
 H         -3.5961915049       -3.8518229969        0.3278191066
 H         -5.9378473750       -1.9636062052        1.1006554934
 H         -5.3173883523       -2.2569895060       -0.5777591819
 H         -3.6508594490       -1.1329321490        1.7898577514
