  62
        -98.94521428
 C          2.4520721068        1.1930198835       -0.0729352296
 C          3.5467725627        0.8483256312        0.7598589258
 C          4.4607893439       -0.1699363061        0.2332051287
 C          4.2275233269       -0.7141344382       -0.9749254240
 C          5.0778421499       -1.7510062098       -1.6575032588
 C          4.7760652558       -3.1914942010       -1.2217886891
 C          5.2561841701       -3.5607921607        0.1823804376
 H          5.1781106318       -4.6461305703        0.2716535640
 H          6.3101507895       -3.3005309292        0.2846259891
 C          4.4509405537       -2.9134273997        1.3177734752
 H          3.4984054263       -2.5474873725        0.9265537177
 H          4.2163065374       -3.6669707091        2.0729731913
 C          5.1685085932       -1.7665220955        2.0296241794
 H          6.0553257007       -2.1495412344        2.5392354195
 H          4.4941054305       -1.3586569117        2.7866650029
 C          5.5942136235       -0.6177762695        1.1060397176
 H          5.8895638955        0.2306385662        1.7280359673
 H          6.4463222332       -0.9198213771        0.4977346512
 H          5.2655477139       -3.8569066737       -1.9367607150
 H          3.6989116599       -3.3601503938       -1.2953613280
 H          6.1319601679       -1.5309332335       -1.4861990500
 H          4.8733839054       -1.6652943482       -2.7269198771
 O          3.1678468409       -0.3544002157       -1.7464165450
 C          2.2459249155        0.5886753786       -1.3129950229
 O          1.3210839520        0.7979471041       -2.1226922036
 O          3.7519087886        1.3723623479        1.8863836738
 C          1.4618695277        2.2252045450        0.4420041619
 C          0.1576589426        1.5223345776        0.7246171962
 C          0.0169644546        0.8039866734        1.9092695584
 C         -1.1380242137        0.0914811664        2.1694091992
 C         -2.1736315927        0.0708610237        1.2506163205
 C         -2.0349374325        0.7680302515        0.0587874371
 C         -0.8827092042        1.5028624143       -0.1903622715
 H         -0.7848016667        2.0300843883       -1.1259812474
 N         -3.0742136068        0.7464711499       -0.8867951430
 S         -3.7930634189       -0.7250556733       -1.2524882607
 O         -2.8854434894       -1.8337578060       -1.0664890666
 O         -4.3418992572       -0.5575210066       -2.5808032662
 C         -5.1369624869       -0.8316343451       -0.0868695749
 C         -5.9993623603        0.2426833255        0.0136910921
 C         -7.0565172985        0.1710485479        0.9065959991
 C         -7.2353507615       -0.9682729173        1.6771415732
 C         -6.3633997720       -2.0398875606        1.5619342920
 C         -5.3029276541       -1.9739981242        0.6713215721
 H         -4.5959004548       -2.7798185192        0.5527766128
 H         -6.5035715328       -2.9251263709        2.1613026570
 H         -8.0587108463       -1.0213136529        2.3717982821
 H         -7.7362166258        1.0027317189        0.9992929407
 H         -5.8267609586        1.1082277594       -0.6037179619
 H         -2.8538930048        1.2523484422       -1.7329193103
 H         -3.0720403934       -0.4932972393        1.4406108440
 H         -1.2345339057       -0.4569510461        3.0941361974
 H          0.8340662598        0.8021579318        2.6173082519
 H          1.8776187189        2.5718222251        1.3977179981
 C          1.3349566787        3.4101413962       -0.4916627929
 C          0.6848754059        4.6665309333        0.0033926782
 C          2.1631972928        4.6325499778       -0.2383920053
 H          2.5608969070        5.1686484722       -1.0870868934
 H          2.8221031334        4.6205473422        0.6172934292
 H          0.0652073190        5.2300151560       -0.6772723062
 H          0.3384092053        4.6760073202        1.0256095201
 H          1.1767549002        3.1284571458       -1.5257545637
