  62
        -98.94614277
 C         -1.9041750620       -1.2747885546        0.3098854154
 C         -1.6696386864        0.0826159388       -0.0117433714
 C         -2.7788880530        1.0071692177        0.2628695608
 C         -3.9143613994        0.5312104584        0.8058645241
 C         -5.1387426818        1.3514844411        1.0888825354
 C         -6.1025092464        1.3417848982       -0.1059072113
 C         -5.4316473299        1.6570259573       -1.4429125854
 H         -4.7356038688        0.8524743235       -1.6915649304
 H         -6.2117963855        1.6531839021       -2.2072715389
 C         -4.6873228937        2.9991177531       -1.4785214104
 H         -5.0277673792        3.6335518203       -0.6594020366
 H         -4.9351925923        3.5121038252       -2.4101808383
 C         -3.1630255261        2.8800174945       -1.4280670008
 H         -2.8256402566        2.1717974089       -2.1892814948
 H         -2.7375334825        3.8553463811       -1.6790913508
 C         -2.5699363744        2.4557324430       -0.0785885114
 H         -1.4863046719        2.5941416233       -0.1377770794
 H         -2.9586896959        3.0993691802        0.7130772887
 H         -6.8961721027        2.0664566908        0.0847579959
 H         -6.5570317254        0.3508811279       -0.1765112247
 H         -5.6455355749        0.9250124470        1.9561346375
 H         -4.8404753965        2.3722426104        1.3197663304
 O         -4.0937277885       -0.7770728757        1.1217644718
 C         -3.1014829721       -1.7119202543        0.8767189412
 O         -3.3962960184       -2.8773590985        1.2098686402
 H          1.7531160607       -1.8995505069       -0.9118429200
 C          1.6574122577       -1.7713168529        0.1528220091
 C          0.4348501748       -1.9338465014        0.7840271537
 C          0.3660782514       -1.7487975557        2.1635026720
 C          1.4887929474       -1.4018988402        2.8886769981
 C          2.7044524780       -1.2201318308        2.2512282595
 C          2.7847645356       -1.4044113209        0.8772594997
 N          4.0090648624       -1.2430796315        0.1987508340
 S          4.1152474298       -0.0997111648       -1.0224449509
 O          3.1912515424       -0.4205501015       -2.0774907173
 O          5.5165392860       -0.0809431013       -1.3843909312
 C          3.6913691124        1.4400940197       -0.2266428860
 C          4.7202146389        2.2575090215        0.2019344849
 C          4.4145677895        3.4231272264        0.8845331542
 C          3.0893794791        3.7443592247        1.1377835290
 C          2.0707336591        2.9103484353        0.7048784487
 C          2.3666225650        1.7441326340        0.0147698187
 H          1.5822526255        1.0893967838       -0.3315302175
 H          1.0377255909        3.1520626493        0.9001134152
 H          2.8480761599        4.6489683059        1.6736271798
 H          5.2066688304        4.0735291464        1.2191504523
 H          5.7348889308        1.9677166921       -0.0192325181
 H          4.8008403239       -1.1334494581        0.8177005811
 H          3.5830705508       -0.9415516586        2.8133831465
 H          1.4175530242       -1.2640878135        3.9569636089
 H         -0.5871795858       -1.8818734584        2.6576770875
 C         -0.8257620013       -2.3105854591        0.0447370325
 H         -1.2000718588       -3.2543076856        0.4676358818
 C         -0.6268079192       -2.4924399261       -1.4451917188
 C         -0.1055127855       -3.7919053144       -1.9780350585
 C         -1.5399705839       -3.4147703705       -2.1928026890
 H         -1.8576620542       -3.1338213522       -3.1858725152
 H         -2.2973411734       -3.9327822542       -1.6220521342
 H          0.5655159416       -3.7683855976       -2.8236178778
 H          0.1116738356       -4.5730164615       -1.2650808744
 H         -0.3215489157       -1.5801202460       -1.9458434942
 O         -0.5898572088        0.5052434977       -0.5004608486
