  62
        -98.94578239
 C          2.0092548153        0.8154423525        0.0687226953
 C          2.5091708514       -0.1967463528        0.9277387198
 C          2.5532924861       -1.5552054176        0.3748946808
 C          2.1397729505       -1.7753907691       -0.8855292807
 C          2.1190751635       -3.1011891281       -1.5957416949
 C          0.8734703387       -3.9456339792       -1.2926620634
 C          0.8397487311       -4.5771929861        0.0996091620
 H          0.0385432563       -5.3188220091        0.0954992340
 H          1.7747637449       -5.1081585950        0.2823854392
 C          0.5799446734       -3.5860593129        1.2427136497
 H          0.1464641960       -2.6638825837        0.8476312757
 H         -0.1637156748       -4.0016966253        1.9272230133
 C          1.8110094411       -3.2359875244        2.0795438668
 H          1.5109698517       -2.4880399511        2.8187498290
 H          2.1527669472       -4.1231606082        2.6182200552
 C          2.9895835326       -2.6691680771        1.2770893067
 H          3.4667794072       -3.4618105592        0.7006615198
 H          3.7177469090       -2.2613287863        1.9830009639
 H         -0.0164197614       -3.3260679674       -1.4278264310
 H          0.8369712512       -4.7491013310       -2.0317854944
 H          3.0150983414       -3.6682732023       -1.3423765234
 H          2.1367590902       -2.8830174348       -2.6655900217
 O          1.6859580167       -0.7772294953       -1.6861287379
 C          1.5590149510        0.5293946794       -1.2210298252
 O          1.0467643139        1.3031220577       -2.0487008487
 O          2.8962304576        0.0253170326        2.1065409384
 C          1.8434089589        2.2108754672        0.6452532945
 C          0.4218003241        2.6648877137        0.4252343743
 C          0.0690027304        3.7617138299       -0.3486705754
 C         -1.2641029276        4.0892674422       -0.5253127837
 C         -2.2648241370        3.3315773493        0.0542585501
 C         -1.9226536360        2.2327080600        0.8355661561
 C         -0.5867108791        1.9172749505        1.0228617591
 H         -0.3263630671        1.0650380696        1.6348666561
 N         -2.9190661181        1.4599899439        1.4594858614
 S         -2.8881495813       -0.2092826941        1.3983496122
 O         -4.1618515828       -0.6105447800        1.9543788627
 O         -1.7133641170       -0.7109177990        2.0623037988
 C         -2.8441778051       -0.6104550096       -0.3361814345
 C         -4.0331564664       -0.7684867943       -1.0214496742
 C         -3.9920040009       -1.0244902703       -2.3822979752
 C         -2.7700466839       -1.1055512712       -3.0337295165
 C         -1.5854206616       -0.9417019009       -2.3326130263
 C         -1.6223205300       -0.6934261998       -0.9701896106
 H         -0.7201499940       -0.5590024358       -0.3933754477
 H         -0.6303219559       -0.9859675426       -2.8323554509
 H         -2.7367032101       -1.2973810648       -4.0945652401
 H         -4.9102170963       -1.1553818817       -2.9320106645
 H         -4.9593507630       -0.7029333584       -0.4737473694
 H         -3.8587099583        1.7933847612        1.2974698752
 H         -3.3037022160        3.5855894810       -0.0923813891
 H         -1.5279261089        4.9406824272       -1.1339768269
 H          0.8361021669        4.3446852504       -0.8308501248
 H          1.9847842889        2.0702445051        1.7306231389
 C          2.8880891763        3.2244220119        0.2072306045
 C          4.2794543589        2.7874708141       -0.1395345190
 C          3.3798680686        3.3374091805       -1.2033953750
 H          3.5926244529        4.3238727259       -1.5892070150
 H          2.9688729048        2.6612882082       -1.9353307682
 H          5.1084192187        3.3898345450        0.2006895489
 H          4.4817791019        1.7259584238       -0.1392007192
 H          2.8028438014        4.1517588530        0.7661588807
