  62
        -98.94643065
 C          1.5634452686        1.0925848295        0.0360890595
 C          2.6234061013        0.8205311183        0.9380947439
 C          3.3435098146       -0.4418896890        0.7287022482
 C          2.9409202983       -1.2727652856       -0.2498365432
 C          3.6037265659       -2.5737254685       -0.5964183448
 C          4.6842166146       -2.3774422859       -1.6692059510
 C          5.6558464403       -1.2367506418       -1.3665148085
 H          6.3901942460       -1.2122545600       -2.1746303017
 H          5.1141335628       -0.2885565888       -1.3967865154
 C          6.3822212904       -1.3614475173       -0.0199059375
 H          7.4394453437       -1.1327536610       -0.1702705761
 H          6.3220257694       -2.3891696856        0.3400823312
 C          5.8717761036       -0.4129949880        1.0666372196
 H          5.8441114708        0.6080859503        0.6776552663
 H          6.5867121425       -0.4279109980        1.8935891681
 C          4.4921347743       -0.7458994815        1.6486615592
 H          4.4688988360       -1.7909364194        1.9638680329
 H          4.3434215801       -0.1175610366        2.5316340962
 H          5.2390207695       -3.3113985280       -1.7755385052
 H          4.1930763166       -2.1642084189       -2.6215318378
 H          4.0433888681       -3.0021854448        0.3020161951
 H          2.8457494707       -3.2581810529       -0.9809725981
 O          1.9003023100       -0.9940485542       -1.0739486450
 C          1.1969748003        0.1985144023       -0.9697238846
 O          0.2939103264        0.3245531385       -1.8182627079
 H         -1.5140691090        2.0487137420       -1.2478031175
 C         -1.6552467745        1.8155622063       -0.2047827338
 C         -0.6083901232        1.9763627458        0.6889562921
 C         -0.8166342945        1.6467501087        2.0257612180
 C         -2.0408843863        1.1687970723        2.4541259848
 C         -3.0757764664        0.9819659371        1.5536134234
 C         -2.8714380739        1.2959851644        0.2169942354
 N         -3.8945861284        1.0475746330       -0.7166100200
 S         -4.6301930269       -0.4539441634       -0.6249846405
 O         -5.0271726518       -0.7728774894       -1.9791265556
 O         -5.7044611492       -0.3978419534        0.3370484083
 C         -3.3841943991       -1.5985112351       -0.0489180646
 C         -2.1627321444       -1.6464269483       -0.6905752342
 C         -1.2029072086       -2.5358620685       -0.2350302917
 C         -1.4772271527       -3.3624381527        0.8430367664
 C         -2.7118487187       -3.3079295781        1.4713526507
 C         -3.6740600630       -2.4170435995        1.0245477213
 H         -4.6427557228       -2.3341577517        1.4902734728
 H         -2.9245256938       -3.9521183863        2.3092807691
 H         -0.7233955864       -4.0495756302        1.1942020421
 H         -0.2415271791       -2.5612213201       -0.7241028246
 H         -1.9455654815       -0.9905879274       -1.5189524556
 H         -3.6209821151        1.2484160357       -1.6680466319
 H         -4.0316571817        0.5906638078        1.8628271477
 H         -2.1891825257        0.9251549170        3.4949588204
 H          0.0024771170        1.7555527483        2.7226409555
 C          0.7717007698        2.3762730978        0.2318352926
 H          1.2703792074        2.9055894683        1.0543047086
 C          0.7879782058        3.2580841532       -0.9983337434
 C          0.3419255296        4.6842363095       -0.8831572209
 C          1.7913506457        4.3666906343       -1.0917492859
 H          2.2338699425        4.5808039798       -2.0531714021
 H          2.4687300788        4.4997460386       -0.2609984444
 H          0.0337574487        5.0312312031        0.0914681990
 H         -0.2124631617        5.1203764055       -1.7001065872
 H          0.5569343301        2.7273238147       -1.9139125791
 O          2.9502385128        1.5983374765        1.8731112950
