  62
        -98.94038866
 C         -1.4819978030       -1.4816721457       -0.0401639461
 C         -2.5570872974       -1.0269571831        0.7531894999
 C         -3.2698544359        0.1759140607        0.2793872775
 C         -2.8484721325        0.7723267636       -0.8517395708
 C         -3.3914895347        2.0276791396       -1.4800723011
 C         -2.9371918259        3.3089057622       -0.7540336091
 C         -2.8566954330        3.2022570668        0.7676303574
 H         -2.3455002855        4.0944458163        1.1397936879
 H         -2.2395181390        2.3421408759        1.0360081261
 C         -4.2026821445        3.1053813049        1.4821875888
 H         -4.7588263731        4.0315863851        1.3184405827
 H         -4.0033634742        3.0235338467        2.5539740329
 C         -5.0922066619        1.9352581436        1.0645649313
 H         -5.4959401350        2.0999554978        0.0693630320
 H         -5.9463612633        1.9150258451        1.7480782991
 C         -4.4359563620        0.5600732537        1.1576117931
 H         -5.2072183091       -0.2013210503        0.9857122635
 H         -4.0943035101        0.3988694607        2.1864939015
 H         -3.6123434875        4.1215187325       -1.0262208203
 H         -1.9393752427        3.5690712548       -1.1142239590
 H         -4.4754174444        1.9697893945       -1.5278232370
 H         -3.0173111804        2.0556466842       -2.5054745544
 O         -1.7940907961        0.3062102386       -1.5781024305
 C         -1.0896388426       -0.8252184203       -1.2073343391
 O         -0.1622991194       -1.1354795147       -1.9747227736
 O         -2.9042449215       -1.5909508690        1.8279868491
 C         -0.6905098528       -2.6980043520        0.4036930798
 C          0.7633030904       -2.3248783670        0.5586542061
 C          1.8110571998       -3.0955728154        0.0733799994
 C          3.1212991668       -2.6710286315        0.2183570351
 C          3.4162622974       -1.4750094493        0.8458222508
 C          2.3754580550       -0.7019988465        1.3442912419
 C          1.0668590120       -1.1341032229        1.2076984551
 H          0.2595369073       -0.5256314995        1.5974177756
 N          2.6591636066        0.5317601330        1.9683141584
 S          3.4694245587        1.6551924645        1.0209296430
 O          4.8572913454        1.2770830421        0.9331830288
 O          3.1977649046        2.9358484561        1.6351639222
 C          2.7042708819        1.5551606166       -0.5851356951
 C          3.2964810299        0.7995954634       -1.5760519531
 C          2.6586365078        0.6836895323       -2.7999435133
 C          1.4478138333        1.3222898853       -3.0112621683
 C          0.8691797290        2.0820294718       -2.0074456804
 C          1.4956612551        2.1939911420       -0.7780324551
 H          1.0731322969        2.7747136461        0.0275791227
 H         -0.0773985187        2.5697478059       -2.1768359654
 H          0.9453395713        1.2211124406       -3.9598233394
 H          3.1012210689        0.0874313682       -3.5812678407
 H          4.2411323625        0.3221476856       -1.3738686501
 H          1.8395654233        0.9651211802        2.3701505992
 H          4.4289368053       -1.1205015220        0.9505656955
 H          3.9245204613       -3.2783591043       -0.1700439112
 H          1.6025101259       -4.0255570930       -0.4292058341
 H         -1.0885615262       -2.9658804220        1.3939285962
 C         -0.9215180698       -3.8562286520       -0.5437998909
 C         -0.8418617300       -5.2682949556       -0.0476850834
 C         -2.1706322920       -4.6706357922       -0.3973704524
 H         -2.6728047361       -5.0109161549       -1.2905021855
 H         -2.8425352097       -4.4064348113        0.4063445163
 H         -0.4336390857       -6.0232287158       -0.7025848495
 H         -0.6145356402       -5.4202613069        0.9966587544
 H         -0.5772925323       -3.6440011835       -1.5497067335
