  62
        -98.93202316
 C         -2.2436800565       -1.0160189013       -0.2524621089
 C         -3.6253129873       -1.1518491322        0.0326526012
 C         -4.5121022982       -0.0337464111       -0.3424094885
 C         -3.9645228495        1.0642301933       -0.8947528250
 C         -4.6473570214        2.3380027998       -1.3171686404
 C         -5.0193489572        3.2349043796       -0.1259440937
 C         -5.6534506543        2.5045227585        1.0548148429
 H         -4.9660910878        1.7347454492        1.4107329804
 H         -5.7752498948        3.2281057063        1.8652661306
 C         -7.0186454445        1.8796467897        0.7768384934
 H         -7.3924806677        1.4847730926        1.7249982476
 H         -7.7088505702        2.6593795891        0.4472729596
 C         -7.0391684805        0.7447053041       -0.2495690284
 H         -6.9948963041        1.1307174004       -1.2644668060
 H         -8.0030586857        0.2366094543       -0.1529365054
 C         -5.9645516562       -0.3180408809       -0.0438631333
 H         -6.2223138356       -1.1960048215       -0.6486523215
 H         -5.9976887162       -0.6664997105        0.9947290109
 H         -5.6952302396        4.0151898529       -0.4800922544
 H         -4.1059624269        3.7164380574        0.2323783295
 H         -3.9389817761        2.8777204647       -1.9496368374
 H         -5.5226322786        2.1110926851       -1.9186605823
 O         -2.6240558310        1.1695261671       -1.1160013860
 C         -1.7305429329        0.1543724315       -0.8132746602
 O         -0.5496884817        0.4280528952       -1.0995176185
 O         -4.1114589436       -2.1743419217        0.5869018346
 C         -1.3370209343       -2.1685710659        0.1444342182
 C         -0.1835871150       -1.6506641681        0.9638660522
 C         -0.3897954888       -1.3243338558        2.3009638121
 C          0.6353170038       -0.7988824857        3.0647569673
 C          1.8849035628       -0.5829982668        2.5105127398
 C          2.0963112323       -0.8937493455        1.1743981367
 C          1.0687462092       -1.4358411766        0.4126449680
 H          1.2357920469       -1.6558637299       -0.6301837407
 N          3.3624988969       -0.6843939250        0.5952427490
 S          4.1966218552        0.7222513249        1.0161812081
 O          4.8388051529        0.5029965851        2.2894922678
 O          3.3296750896        1.8768260109        0.9421365375
 C          5.4242092518        0.7755314325       -0.2743642335
 C          6.6438686320        0.1589871014       -0.0709182175
 C          7.5817372344        0.1773548756       -1.0911329337
 C          7.2850849275        0.8064179909       -2.2909219206
 C          6.0564268780        1.4216596173       -2.4801442625
 C          5.1136166937        1.4063706186       -1.4643602685
 H          4.1485415795        1.8780778934       -1.5656804305
 H          5.8286837833        1.9117545032       -3.4131549383
 H          8.0160390654        0.8202719419       -3.0838932611
 H          8.5387656906       -0.2976454869       -0.9476338167
 H          6.8305178323       -0.3103405140        0.8807593757
 H          3.3275070678       -0.7834241145       -0.4106541259
 H          2.6894594154       -0.1592487534        3.0898084267
 H          0.4617181568       -0.5488693039        4.1009033507
 H         -1.3699938363       -1.4763671544        2.7321862935
 H         -1.9663487995       -2.7926325575        0.7993945550
 C         -0.8968977284       -3.0605495147       -1.0067393195
 C         -1.8505966103       -3.3966010462       -2.1130738464
 C         -0.6445392173       -2.5538360070       -2.3938484761
 H          0.1660350276       -2.9952326820       -2.9556649402
 H         -0.7823708520       -1.5009249766       -2.5824576529
 H         -1.8728170392       -4.4089956496       -2.4869586451
 H         -2.8169777289       -2.9138904245       -2.0966506374
 H         -0.2540717842       -3.8651141317       -0.6621061316
