  62
        -98.94875298
 C          1.8583343032        1.1154238385       -0.2583400868
 C          0.8790902249        1.6990248407       -1.0951923240
 C         -0.0228649830        2.6596224359       -0.4535757168
 C          0.1060775008        2.9181843058        0.8605550013
 C         -0.7232540243        3.8904881750        1.6552087685
 C         -2.0634413521        3.3158699913        2.1334287463
 C         -3.1283965336        3.1665348896        1.0464153483
 H         -4.0798733066        2.9941909818        1.5534742700
 H         -3.2175252940        4.1018305732        0.4924118610
 C         -2.8743921199        2.0060121058        0.0743254909
 H         -3.8038432440        1.4530005464       -0.0781238076
 H         -2.1611744651        1.3078741752        0.5208917855
 C         -2.3732278264        2.4246405612       -1.3078638336
 H         -2.1673379971        1.5173492784       -1.8820699601
 H         -3.1564597308        2.9826344508       -1.8260788502
 C         -1.1002125564        3.2796002382       -1.2920060305
 H         -0.7224370298        3.3476212766       -2.3153693369
 H         -1.3266785962        4.2840359360       -0.9345971405
 H         -2.4496880157        3.9855033829        2.9058789076
 H         -1.8798378854        2.3418359858        2.5947917457
 H         -0.1302161257        4.1586393929        2.5323481271
 H         -0.9001644182        4.7911781408        1.0659191985
 O          1.0535301434        2.3273447298        1.6353388113
 C          1.9256003068        1.3879285485        1.1079604607
 O          2.7130455474        0.8935904064        1.9389255559
 H          0.4284697781       -0.9548728405       -0.2812636322
 C          1.2151428760       -1.6255893621        0.0317648146
 C          2.5384258512       -1.2560189872       -0.1773492989
 C          3.5428522803       -2.1226426251        0.2312472006
 C          3.2222072557       -3.3101262692        0.8676704443
 C          1.9059162893       -3.6507815363        1.1162619188
 C          0.8914206372       -2.7968210701        0.6944935168
 N         -0.4561205591       -3.1249850423        0.9041552253
 S         -1.6474312973       -1.9771875904        1.1460019922
 O         -1.1093197027       -0.7088310115        1.5805792800
 O         -2.5892261912       -2.6036525334        2.0512196070
 C         -2.4440980711       -1.7934147356       -0.4396647208
 C         -1.7973451278       -2.1114368737       -1.6162261053
 C         -2.4626972657       -1.9202387628       -2.8182257070
 C         -3.7555427694       -1.4218583539       -2.8261809227
 C         -4.3977762244       -1.1204001022       -1.6351784545
 C         -3.7377442827       -1.3076043943       -0.4317156733
 H         -4.2003187171       -1.0954925841        0.5189259189
 H         -5.4066045665       -0.7399780943       -1.6404864324
 H         -4.2655867204       -1.2713905135       -3.7644750577
 H         -1.9635932299       -2.1591853980       -3.7437014263
 H         -0.7929309304       -2.5009062828       -1.5921002290
 H         -0.6152092386       -3.9415175523        1.4748522978
 H          1.6599354808       -4.5651167458        1.6343883357
 H          4.0111502815       -3.9727935409        1.1897366001
 H          4.5757150652       -1.8633993462        0.0661243751
 C          2.7956778414        0.0740896853       -0.8422009233
 H          2.5139997530       -0.0095838278       -1.9030121963
 C          4.2369558035        0.5280665947       -0.7543986282
 C          5.2349976718        0.0803889274       -1.7792947532
 C          4.7523807499        1.4987354661       -1.7731333937
 H          5.4284370448        2.2754365702       -1.4487707124
 H          4.0684968477        1.8116946637       -2.5485499508
 H          4.8854045804       -0.5687454788       -2.5677006650
 H          6.2478912350       -0.1154877254       -1.4611671694
 H          4.5707162564        0.6525875236        0.2696656884
 O          0.7668428347        1.4300019453       -2.3226112532
