  62
        -98.93707686
 C         -1.1852165573       -1.1557259467       -0.0078228661
 C         -1.7396042027       -0.2000332643        0.8751771711
 C         -2.6523485726        0.7928267010        0.2824242974
 C         -2.9033162159        0.7409124733       -1.0370839315
 C         -3.8404143049        1.6151539429       -1.8237480181
 C         -5.2279601307        0.9605193096       -1.9346203159
 C         -6.1794060616        1.2667962060       -0.7784779459
 H         -6.4989726394        2.3090682210       -0.8439269801
 H         -7.0665474105        0.6439974636       -0.9150463196
 C         -5.6127785282        1.0155784843        0.6214586162
 H         -5.0618324397        0.0733986721        0.6312512666
 H         -6.4549156952        0.9042569648        1.3072840539
 C         -4.7119159404        2.1545333786        1.1217484028
 H         -4.8400938002        3.0199721475        0.4716919169
 H         -5.0406550844        2.4637819967        2.1160631063
 C         -3.2193973236        1.8092296887        1.2352885484
 H         -2.6343031455        2.7306919954        1.1515890844
 H         -3.0164954361        1.3972824642        2.2285723666
 H         -5.0829203283       -0.1198696954       -2.0166329059
 H         -5.7012245913        1.2965574986       -2.8595859543
 H         -3.9074904275        2.6053258106       -1.3826977212
 H         -3.4173638183        1.7042448821       -2.8267114925
 O         -2.3457823182       -0.1952967717       -1.8546659843
 C         -1.4772529899       -1.1624587829       -1.3716092080
 O         -1.0391928002       -1.9383142503       -2.2418682789
 H          0.8561796279       -0.0867072357       -0.7992712881
 C          1.5759340963       -0.8763663881       -0.6234884427
 C          1.1776918170       -2.0321953792        0.0308029335
 C          2.1326472675       -3.0218222709        0.2471891806
 C          3.4397171060       -2.8526960023       -0.1733406548
 C          3.8286229522       -1.6963192381       -0.8277125381
 C          2.8817051852       -0.7123214969       -1.0626620453
 N          3.2769927640        0.4885873658       -1.7084416263
 S          3.9805226800        1.5893320560       -0.6556644547
 O          4.1346910072        2.8176401861       -1.4014961045
 O          5.1840642357        1.0016260369       -0.1270136799
 C          2.7706227839        1.7962613238        0.6373178816
 C          2.7660590113        0.9128005100        1.6983428652
 C          1.7532827383        1.0036303933        2.6392009320
 C          0.7636533731        1.9641596050        2.5016493106
 C          0.7830464471        2.8433178288        1.4299849398
 C          1.7908559477        2.7564889610        0.4832976774
 H          1.8401412739        3.4201739181       -0.3658351745
 H          0.0109654143        3.5890735068        1.3249001814
 H         -0.0349610212        2.0130088059        3.2240794023
 H          1.7254339663        0.3158058919        3.4685805512
 H          3.5508626031        0.1768918663        1.7688187453
 H          2.5079634533        0.9459641091       -2.1793477392
 H          4.8447696224       -1.5362792689       -1.1484357216
 H          4.1658183815       -3.6295150528        0.0107619400
 H          1.8469678902       -3.9292734511        0.7545291676
 C         -0.2305556936       -2.1847128373        0.5571413724
 H         -0.1995185913       -1.9829689121        1.6391681257
 C         -0.7620855169       -3.5909718194        0.3433683490
 C         -0.6299103334       -4.6332987759        1.4121720981
 C         -1.9692848404       -4.0319947407        1.1146305312
 H         -2.7118471117       -4.6336663125        0.6124623068
 H         -2.3833564629       -3.3323807936        1.8262907663
 H         -0.1513113405       -4.3498940887        2.3376288591
 H         -0.4503412634       -5.6553352394        1.1142792138
 H         -0.6907983574       -3.9084051211       -0.6906492356
 O         -1.4871910159       -0.1804985748        2.1087054417
