  62
        -98.94287698
 C          2.0155100944       -0.2931086370       -0.9483135168
 C          2.8809898678       -1.1261464742       -0.1973898445
 C          4.2822081246       -0.6851545155       -0.1104978777
 C          4.6657012215        0.4436657390       -0.7319844585
 C          6.0444675553        1.0331314691       -0.6736012578
 C          6.1749960555        2.0281775433        0.4880538180
 C          5.6638440529        1.4887611277        1.8240672886
 H          5.8352773612        2.2640300879        2.5740606518
 H          4.5834846213        1.3399633814        1.7580598273
 C          6.3291967316        0.1818388868        2.2777944012
 H          7.2638353364        0.0345087806        1.7354388247
 H          6.5794152163        0.2664529530        3.3374206922
 C          5.4527044045       -1.0625166363        2.1245565452
 H          4.4783949412       -0.8824135442        2.5855558597
 H          5.9275501442       -1.8816427832        2.6710676255
 C          5.2241747276       -1.5439130740        0.6862197643
 H          6.1831294635       -1.6416086245        0.1737158104
 H          4.7586218049       -2.5323421974        0.7369258946
 H          7.2251322381        2.3099949415        0.5845880711
 H          5.6036749577        2.9259851086        0.2404854056
 H          6.7724092220        0.2317529748       -0.5629688171
 H          6.2341105871        1.5570060209       -1.6120273723
 O          3.8121952219        1.2110518425       -1.4570153604
 C          2.4776339321        0.8676301823       -1.5771434452
 O          1.8093483995        1.6621196115       -2.2704150754
 H         -1.4953574701        1.1898039187       -1.1039659958
 C         -1.3071666119        0.7622910291       -0.1304959645
 C         -0.2895667359       -0.1652494241        0.0396724502
 C         -0.0695687483       -0.6916450334        1.3089783483
 C         -0.8452428849       -0.2866852631        2.3792913598
 C         -1.8699963605        0.6270755705        2.2025660902
 C         -2.1036216887        1.1519504520        0.9381117756
 N         -3.1515683633        2.0681300215        0.7141531549
 S         -4.3354082549        1.6263331953       -0.3861961656
 O         -3.7687978002        1.5311196422       -1.7062509166
 O         -5.3962275686        2.5917546786       -0.2065452967
 C         -4.8719498437        0.0209256312        0.1785528054
 C         -5.9582019182       -0.0564414672        1.0284492922
 C         -6.3292178293       -1.2924141619        1.5326778795
 C         -5.6021367696       -2.4227585298        1.1910444686
 C         -4.5121877701       -2.3278412124        0.3395076040
 C         -4.1405506266       -1.0957782695       -0.1750687014
 H         -3.2995151927       -0.9888686959       -0.8403680323
 H         -3.9443112663       -3.2052947012        0.0750354358
 H         -5.8862631652       -3.3840645074        1.5891050497
 H         -7.1788166371       -1.3697176432        2.1918677171
 H         -6.4948020840        0.8481456250        1.2653404971
 H         -3.5899258030        2.3961143502        1.5638694261
 H         -2.4815953411        0.9359721704        3.0369803459
 H         -0.6579754280       -0.6956743055        3.3604486353
 H          0.7207975639       -1.4129989115        1.4472771081
 C          0.5377392912       -0.5903316343       -1.1500902332
 H          0.2289996285        0.0287743971       -2.0037795978
 C          0.2609310608       -2.0418874898       -1.4939108896
 C         -0.9597773690       -2.3751449135       -2.2954527175
 C          0.4004408014       -2.4934433192       -2.9146665775
 H          0.7999936900       -3.4779814046       -3.1054762526
 H          0.6931719203       -1.7544614858       -3.6470478931
 H         -1.4980814442       -3.2817484079       -2.0654691498
 H         -1.5883062850       -1.5574366796       -2.6187357631
 H          0.5652920493       -2.7339097195       -0.7202093160
 O          2.5275405044       -2.1865147789        0.3820745594
