  62
        -98.94903937
 C         -0.8989356012       -1.3465856705        0.2382922591
 C         -1.4485200767       -0.2679165326        0.9680748942
 C         -2.2735452115        0.6733525448        0.1996111701
 C         -2.4003081572        0.5012944597       -1.1290071202
 C         -3.2196792156        1.3790154466       -2.0302882290
 C         -4.6504411734        0.8443647909       -2.1817469211
 C         -5.3250486414        0.5102941539       -0.8512269161
 H         -6.3392251343        0.1736214706       -1.0764055228
 H         -4.8017865699       -0.3302010114       -0.3895913422
 C         -5.3817303435        1.6797360980        0.1414657713
 H         -5.2212907484        2.6207050005       -0.3859489640
 H         -6.3818424719        1.7191266637        0.5780692974
 C         -4.3926390060        1.5734998107        1.3035137645
 H         -4.4843782102        0.5904586144        1.7718168111
 H         -4.6687171079        2.3205553663        2.0523299493
 C         -2.9165535380        1.8037501007        0.9537783691
 H         -2.8092702020        2.7445854115        0.4089759414
 H         -2.3645260365        1.8796413845        1.8950341013
 H         -5.2423110872        1.5892615019       -2.7169324841
 H         -4.6174622439       -0.0635110297       -2.7885257059
 H         -3.2386039531        2.3894785336       -1.6256655527
 H         -2.7390524042        1.4019504663       -3.0103271328
 O         -1.8289621668       -0.5283695488       -1.8029587740
 C         -1.0655257996       -1.4768157391       -1.1411671806
 O         -0.6100670046       -2.3751680025       -1.8749251460
 H          1.3774105869       -0.1828158738        0.3495789719
 C          1.9237846368       -1.0752323161        0.0809256037
 C          1.3629458106       -2.3190437077        0.3436144258
 C          2.0867922047       -3.4563661118        0.0121144314
 C          3.3203966377       -3.3423193506       -0.6062208996
 C          3.8455305111       -2.1029596386       -0.9215099888
 C          3.1356796060       -0.9578500232       -0.5765090791
 N          3.6321898941        0.3209431554       -0.8673489874
 S          2.5753019523        1.5704742720       -1.2180622690
 O          1.3871550372        1.1176298991       -1.9034608780
 O          3.3921409201        2.5292619394       -1.9351245001
 C          2.1679680500        2.2570065493        0.3723210502
 C          3.1928990471        2.4906749667        1.2681311716
 C          2.8918424803        3.0585516026        2.4952027769
 C          1.5800775917        3.3891725529        2.8003825130
 C          0.5641401357        3.1547354787        1.8874159799
 C          0.8577763955        2.5809226884        0.6606066300
 H          0.0927063610        2.3629815848       -0.0696360113
 H         -0.4561270247        3.4083920558        2.1254582310
 H          1.3450286272        3.8311818749        3.7557166326
 H          3.6786439701        3.2416321199        3.2091200162
 H          4.1991819845        2.2239500598        0.9917798335
 H          4.4545184477        0.3407233196       -1.4525956377
 H          4.7909382526       -2.0176880675       -1.4351744208
 H          3.8709722681       -4.2335612894       -0.8668271319
 H          1.6794474692       -4.4319072761        0.2211507436
 C         -0.0139237408       -2.3476243225        0.9598082201
 H          0.0592459616       -1.9826594773        1.9953334942
 C         -0.6485097564       -3.7220262595        0.9679263597
 C         -0.3658250220       -4.6796061315        2.0859382265
 C         -1.7088189201       -4.0235109945        1.9830090326
 H         -2.5560713127       -4.6210185754        1.6815290907
 H         -1.9538946195       -3.2431676243        2.6886137199
 H         -0.2928952713       -5.7320561321        1.8569586778
 H          0.2990435326       -4.3500714308        2.8697357682
 H         -0.7830336230       -4.1219533923       -0.0310445203
 O         -1.2530180588       -0.0956799510        2.2019626159
