  62
        -98.94393381
 C         -1.8312688821       -1.1312334970        0.2172572745
 C         -2.1732085596       -0.1076207486       -0.6987045782
 C         -3.6046849647        0.0147826696       -1.0133260603
 C         -4.4798843125       -0.8400557506       -0.4530344781
 C         -5.9678481110       -0.7920736164       -0.6431393819
 C         -6.6369940537        0.0722544403        0.4347998090
 C         -5.9810145334        1.4399395311        0.6249255655
 H         -6.5537496704        1.9724213791        1.3873095281
 H         -4.9719477275        1.3007551636        1.0197247609
 C         -5.9102288319        2.2927441579       -0.6494564557
 H         -6.6155877844        1.9129191280       -1.3894624573
 H         -6.2140383893        3.3129683685       -0.4057025145
 C         -4.5176787193        2.3814945580       -1.2770261739
 H         -4.5342378623        3.1725015863       -2.0317225715
 H         -3.7885287035        2.6724237095       -0.5161868792
 C         -4.0120224541        1.1059255800       -1.9628641339
 H         -4.7626092343        0.7448182339       -2.6690453263
 H         -3.1091938620        1.3666521433       -2.5234234939
 H         -6.5920049712       -0.4638931379        1.3855319435
 H         -7.6871650352        0.2044912464        0.1685188555
 H         -6.1899606195       -0.3955004382       -1.6318271972
 H         -6.3564225568       -1.8094050242       -0.5733854446
 O         -4.1085826670       -1.8271484425        0.4017406597
 C         -2.7825508150       -1.9893515252        0.7685346182
 O         -2.5815411525       -2.9148934474        1.5805339805
 H          2.0265328337       -0.1106729666        0.0412779883
 C          1.4404525551        0.4295832551        0.7654025539
 C          0.1974494649       -0.0448439403        1.1551029429
 C         -0.5287625857        0.6811747355        2.0959771449
 C         -0.0375579715        1.8663131029        2.6065058909
 C          1.1912462056        2.3508962052        2.1942561607
 C          1.9338907438        1.6255084516        1.2705586741
 N          3.2044982244        2.0684318553        0.8856434399
 S          3.8838673768        1.7056296507       -0.5945038014
 O          4.9900912868        2.6342132158       -0.7055756343
 O          2.9249017977        1.7382943225       -1.6727062348
 C          4.5396631951        0.0616959807       -0.3963481396
 C          4.5153335886       -0.7991450092       -1.4755205726
 C          5.0725673345       -2.0615202543       -1.3412111919
 C          5.6407343450       -2.4397377719       -0.1346499417
 C          5.6575511648       -1.5631513428        0.9394752863
 C          5.1073893600       -0.2979582419        0.8099268052
 H          5.1049720941        0.4076022807        1.6236337059
 H          6.0987251322       -1.8614676838        1.8768248563
 H          6.0706640435       -3.4234949841       -0.0319447793
 H          5.0607388786       -2.7435798718       -2.1767928061
 H          4.0511980701       -0.4682848288       -2.3914491277
 H          3.4640156427        2.9866135312        1.2132787122
 H          1.5722414804        3.2825857718        2.5837406877
 H         -0.6177273212        2.4229716861        3.3272937822
 H         -1.4928765418        0.3061521128        2.4128432487
 C         -0.3819762291       -1.3319289382        0.6216589025
 H         -0.3957596679       -2.0662438653        1.4408725639
 C          0.4052641057       -1.9135385193       -0.5344507468
 C          1.5653681737       -2.8247892067       -0.2711994323
 C          0.2865364505       -3.3792322435       -0.8212277788
 H          0.2622315300       -3.7023489044       -1.8510989915
 H         -0.3472125599       -3.9595271479       -0.1663142754
 H          2.4239275196       -2.7682558123       -0.9229658655
 H          1.8079693604       -3.0380972424        0.7587240507
 H          0.4621198151       -1.2385914266       -1.3818925365
 O         -1.3308178344        0.6664400649       -1.2245591025
