  62
        -98.94522093
 C         -2.4528696484       -1.1948709387       -0.0719597324
 C         -3.5448529520       -0.8421076055        0.7610496466
 C         -4.4532014417        0.1805470455        0.2332173354
 C         -4.2183086391        0.7202850701       -0.9765868353
 C         -5.0627960189        1.7613499438       -1.6600004338
 C         -4.7501770788        3.2006560842       -1.2280276218
 C         -5.2245261817        3.5766457663        0.1763484704
 H         -6.2801902732        3.3245629914        0.2815095060
 H         -5.1381079587        4.6615879313        0.2628232417
 C         -4.4217050509        2.9261400750        1.3116554924
 H         -4.1806134884        3.6796815287        2.0648269500
 H         -3.4723514722        2.5529599151        0.9195177733
 C         -5.1457930350        1.7857343379        2.0273858678
 H         -6.0285806904        2.1760763993        2.5384334236
 H         -4.4724727404        1.3744555130        2.7835475614
 C         -5.5818751036        0.6383320674        1.1070249484
 H         -6.4327857352        0.9454981495        0.4996407070
 H         -5.8823866778       -0.2065912744        1.7312948972
 H         -5.2366353585        3.8678476740       -1.9434110216
 H         -3.6720426052        3.3616868328       -1.3043679344
 H         -6.1180965374        1.5489325127       -1.4863373197
 H         -4.8608702452        1.6719250495       -2.7295940652
 O         -3.1622536403        0.3517588854       -1.7488930458
 C         -2.2447678525       -0.5949144661       -1.3138155569
 O         -1.3220016215       -0.8113599912       -2.1240021961
 O         -3.7519415448       -1.3624825725        1.8889119303
 C         -1.4671750464       -2.2301038837        0.4455929329
 C         -0.1611613909       -1.5307304639        0.7286410816
 C         -0.0196238275       -0.8122833373        1.9131285970
 C          1.1365065589       -0.1017546570        2.1736363712
 C          2.1724249756       -0.0832363958        1.2552166256
 C          2.0329835951       -0.7805557352        0.0635402597
 C          0.8796725787       -1.5135076966       -0.1859383154
 H          0.7811471878       -2.0406877587       -1.1215362869
 N          3.0728746977       -0.7596063809       -0.8815494225
 S          3.7834406252        0.7146927193       -1.2533249078
 O          2.8699676435        1.8188971825       -1.0692974657
 O          4.3312841378        0.5459124275       -2.5818991790
 C          5.1284118151        0.8325560372       -0.0899722323
 C          5.2855814613        1.9759710190        0.6685158927
 C          6.3465698205        2.0505251095        1.5578306366
 C          7.2278139222        0.9863636437        1.6714184349
 C          7.0577682855       -0.1540964921        0.9005579184
 C          6.0000710362       -0.2344138651        0.0090331614
 H          5.8339861257       -1.1011343734       -0.6085214830
 H          7.7447416251       -0.9799198222        0.9919754174
 H          8.0516082096        1.0461830734        2.3650090704
 H          6.4798448072        2.9366265006        2.1575034189
 H          4.5715116270        2.7757467808        0.5512599500
 H          2.8545509137       -1.2692127206       -1.7259740427
 H          3.0718838593        0.4792189824        1.4452955499
 H          1.2335562068        0.4467634250        3.0982495266
 H         -0.8371222547       -0.8085855592        2.6206961023
 H         -1.8852311486       -2.5735100813        1.4014582910
 C         -1.3435230288       -3.4173057028       -0.4854952953
 C         -0.7036384800       -4.6768776229        0.0146893291
 C         -2.1806836105       -4.6339032515       -0.2334138814
 H         -2.5782695337       -5.1690349312       -1.0827704160
 H         -2.8431161252       -4.6159916745        0.6194457514
 H         -0.0847334897       -5.2456831626       -0.6622204158
 H         -0.3616858100       -4.6866705295        1.0384289522
 H         -1.1794070208       -3.1386099980       -1.5194484506
