  62
        -98.94144186
 C         -1.5832432412       -0.3844571708        0.3019578397
 C         -2.7215885410       -1.0079942414       -0.2646885400
 C         -3.7637479611       -0.0986042720       -0.7627317806
 C         -3.5789637815        1.2322506181       -0.7161831814
 C         -4.5387560117        2.2801498775       -1.2106369821
 C         -5.6369439419        2.6451268179       -0.2022801024
 C         -6.7201440416        1.5835541878       -0.0064369118
 H         -7.5315207318        2.0534748279        0.5531012478
 H         -7.1214039515        1.2917778271       -0.9775128117
 C         -6.2538472914        0.3355122683        0.7561373190
 H         -5.3217693214        0.5562975889        1.2813490089
 H         -6.9944891913        0.0747797486        1.5156240191
 C         -6.0471338110       -0.9012990621       -0.1182307502
 H         -7.0030538209       -1.2116619726       -0.5460765201
 H         -5.6834559808       -1.7128362817        0.5171858303
 C         -5.0409813610       -0.7060816826       -1.2599410903
 H         -5.4772685111       -0.0881477332       -2.0443270107
 H         -4.8020530607       -1.6867771928       -1.6783824097
 H         -6.1158681220        3.5599133676       -0.5590505830
 H         -5.1682667720        2.8685623186        0.7588701175
 H         -3.9452556919        3.1744859376       -1.4118953026
 H         -4.9954349416        1.9489122268       -2.1436816419
 O         -2.4473993816        1.7928783087       -0.2126961817
 C         -1.4415084815        1.0071812392        0.3227296189
 O         -0.4800450117        1.6550509898        0.7823080785
 O         -2.8861502607       -2.2525157715       -0.3614717492
 C         -0.4210603010       -1.1604184102        0.9015954503
 C          0.5150706292       -1.6332456106       -0.1846589094
 C          0.1668439495       -2.6577729012       -1.0584279787
 C          1.0521597597       -3.0671198916       -2.0384297584
 C          2.2995774295       -2.4793978614       -2.1554092187
 C          2.6531234792       -1.4481465208       -1.2928680793
 C          1.7549648890       -1.0261883904       -0.3230315596
 H          2.0250889788       -0.2149796799        0.3354900499
 N          3.8986401491       -0.8174885905       -1.4038071296
 S          4.6954876688       -0.2269204095       -0.0588257300
 O          6.0792076888       -0.1420804294       -0.4756101899
 O          4.4352703490       -1.0306493588        1.1125392705
 C          4.0555134284        1.4195346205        0.1525714690
 C          4.1066283983        2.2808560798       -0.9251985715
 C          3.6296228280        3.5721110098       -0.7720205124
 C          3.1138322678        3.9782729604        0.4493999773
 C          3.0726504379        3.1027497911        1.5226279979
 C          3.5491419982        1.8101300211        1.3754407187
 H          3.5300154684        1.0963100116        2.1844122991
 H          2.6650489778        3.4181438916        2.4695669676
 H          2.7385203775        4.9826715504        0.5665162067
 H          3.6579269279        4.2573591193       -1.6040692728
 H          4.5169288284        1.9296381893       -1.8573992113
 H          4.5303662192       -1.2234106808       -2.0779899793
 H          2.9940955396       -2.8107167017       -2.9125218485
 H          0.7724358299       -3.8614956021       -2.7139871679
 H         -0.8073691504       -3.1133027714       -0.9737475185
 H          0.1314801388       -0.4367631196        1.5164283399
 C         -0.8546454108       -2.3072811497        1.7933198310
 C          0.1508709193       -2.9054041689        2.7291388514
 C         -0.9796361309       -2.0821702688        3.2684816008
 H         -1.7745318408       -2.5830778787        3.8006272211
 H         -0.7561319812       -1.0948153385        3.6463631202
 H          0.1331007195       -3.9722778788        2.8913072521
 H          1.1434607392       -2.4784610286        2.7358210912
 H         -1.5706267606       -2.9723530502        1.3298558313
