  62
        -98.94075141
 C         -2.0070148216       -1.3312327126        0.3677987234
 C         -2.4970250662       -0.6320553715       -0.7632832625
 C         -3.7111714819        0.1712282177       -0.5426742533
 C         -4.2674354676        0.2143351466        0.6807107808
 C         -5.4712679795        1.0303894340        1.0507520577
 C         -5.0644644610        2.4201589448        1.5602003963
 C         -4.0658205446        3.1419975874        0.6550637524
 H         -3.8754664573        4.1225527954        1.0970811695
 H         -3.1178958824        2.5984229731        0.6620746751
 C         -4.5355746755        3.3179317373       -0.7957960666
 H         -5.6167343099        3.1864906835       -0.8533918960
 H         -4.3159263453        4.3396274933       -1.1127890143
 C         -3.8573158130        2.3847708041       -1.8008455324
 H         -2.7718691996        2.4441459683       -1.6833530601
 H         -4.0954178756        2.7395069106       -2.8071988919
 C         -4.2702799529        0.9093222742       -1.7262482395
 H         -5.3590181048        0.8298701525       -1.7525068691
 H         -3.8663719471        0.4085089256       -2.6110236273
 H         -4.6119604556        2.3084104955        2.5483569978
 H         -5.9655897066        3.0267705210        1.6663646920
 H         -6.0117977660        0.5075059728        1.8416798234
 H         -6.1201412130        1.1256433993        0.1824040638
 O         -3.7538124510       -0.4487421580        1.7483753843
 C         -2.6054521550       -1.2142245538        1.6246949879
 O         -2.2158951271       -1.7266425692        2.6934192780
 O         -1.9618812349       -0.6667767343       -1.9002678804
 C         -0.7514197524       -2.1841352256        0.2948829775
 C          0.3312964632       -1.4378182506       -0.4459998404
 C          0.9627625734       -1.9164677315       -1.5853971656
 C          1.9441029072       -1.1656489471       -2.2100430799
 C          2.3211517607        0.0674736239       -1.7126910113
 C          1.7032103813        0.5508734037       -0.5657317329
 C          0.7266887488       -0.2055954054        0.0623511212
 H          0.2416525098        0.1745736521        0.9539550417
 N          2.0873446071        1.7983957510       -0.0444887518
 S          3.7232949142        2.1357433403        0.0525561364
 O          3.8518085859        3.0727060741        1.1469124042
 O          4.2024210906        2.5956101669       -1.2269841706
 C          4.4983505930        0.5819861867        0.4638048100
 C          5.4167611416        0.0188026911       -0.3983248304
 C          5.9807470570       -1.2040952391       -0.0713383767
 C          5.6147924284       -1.8409932699        1.1040208657
 C          4.6930489781       -1.2604544545        1.9620886920
 C          4.1279722472       -0.0371521166        1.6412844654
 H          3.4125926970        0.4426334340        2.2902682561
 H          4.4093956473       -1.7567608228        2.8763840282
 H          6.0499894842       -2.7952233312        1.3555600053
 H          6.6994036865       -1.6568714368       -0.7351601032
 H          5.6701563507        0.5470111709       -1.3029905514
 H          1.6072860601        2.0564450232        0.8045570597
 H          3.0689039424        0.6715712885       -2.2004352227
 H          2.4170461790       -1.5436011210       -3.1034699282
 H          0.6671026323       -2.8642821106       -2.0032329819
 H         -0.4241110859       -2.2917481958        1.3424710683
 C         -0.9820467590       -3.5939716139       -0.2283906026
 C         -2.3071174802       -4.2732926841       -0.0565419993
 C         -1.8387702376       -3.8793866862       -1.4235851452
 H         -1.5276759411       -4.6611256384       -2.1012095046
 H         -2.3118512752       -3.0422024915       -1.9111728338
 H         -2.3158506046       -5.3207631322        0.2052190643
 H         -3.1071952714       -3.7048854830        0.3956132137
 H         -0.1048778615       -4.2200490110       -0.0975429137
