  62
        -98.94608088
 C         -1.1286464254       -1.3229409333       -0.0081468447
 C         -1.6540476739       -0.4595555325        0.9881286350
 C         -2.4477265641        0.6831379654        0.5187977328
 C         -2.6004832369        0.8716631477       -0.8043507484
 C         -3.3884002826        1.9869275664       -1.4271661008
 C         -4.8443791166        1.5716715058       -1.6782628294
 C         -5.5184163129        0.9313659483       -0.4647561702
 H         -5.0316456049       -0.0229964542       -0.2512216766
 H         -6.5504740413        0.7101593693       -0.7451254194
 C         -5.5058810965        1.8015713888        0.7997220141
 H         -6.4976483218        1.7692359566        1.2555835662
 H         -5.3060713200        2.8397676358        0.5324149594
 C         -4.5094537961        1.3517024494        1.8696110065
 H         -4.6433397480        0.2852454865        2.0671017285
 H         -4.7406587524        1.8874821804        2.7939954480
 C         -3.0282110685        1.6015645228        1.5576443021
 H         -2.4652345857        1.4088365982        2.4755113082
 H         -2.8807822960        2.6459853103        1.2744668759
 H         -4.8620900519        0.8528485987       -2.5008573559
 H         -5.4066245697        2.4548496191       -1.9871724132
 H         -3.3542590561        2.8561168005       -0.7727001727
 H         -2.9199351482        2.2438317785       -2.3793398810
 O         -2.0797723404        0.0320860032       -1.7322731128
 C         -1.3349410293       -1.0842791529       -1.3689099793
 O         -0.9405855584       -1.7526418858       -2.3438713305
 H          1.1764931300       -0.9488476854       -1.2426769515
 C          1.7613401012       -1.3092813180       -0.4110783151
 C          1.1814141541       -2.1121160871        0.5591500862
 C          1.9776638157       -2.5762102167        1.6008902124
 C          3.3180714254       -2.2432855485        1.6669469752
 C          3.8842332149       -1.4150351207        0.7140315994
 C          3.0966181659       -0.9410832145       -0.3274985872
 N          3.6222672070       -0.0645602849       -1.2967769810
 S          2.8021090072        1.3773375834       -1.5424039308
 O          1.5862679808        1.1538691125       -2.2802872890
 O          3.7767700009        2.2456456932       -2.1681139810
 C          2.4412906997        1.9503540009        0.1067692137
 C          1.2163118490        1.6616550719        0.6718793918
 C          0.9840646931        2.0198268457        1.9902358814
 C          1.9743457491        2.6653111936        2.7140960548
 C          3.1963410007        2.9611556171        2.1282655323
 C          3.4384246506        2.5929564269        0.8151204532
 H          4.3726949762        2.8045967768        0.3206826496
 H          3.9611372908        3.4691214858        2.6931743242
 H          1.7889186598        2.9394001914        3.7405606120
 H          0.0366940136        1.7709773113        2.4415755759
 H          0.4633414260        1.1618328250        0.0822314465
 H          4.6105552817        0.1178425932       -1.1880831421
 H          4.9246649616       -1.1346750770        0.7743903466
 H          3.9247227818       -2.6149199387        2.4781403219
 H          1.5361884177       -3.1937397574        2.3681079495
 C         -0.2840097515       -2.4807345124        0.4902912334
 H         -0.6230984410       -2.6667036320        1.5193153635
 C         -0.4522927449       -3.7606553279       -0.3058093925
 C         -0.2599973961       -5.0844831069        0.3687112151
 C         -1.6329281855       -4.6437833401       -0.0396943992
 H         -2.1100851007       -5.1284699075       -0.8779778654
 H         -2.3208224419       -4.3359357231        0.7344977398
 H         -0.0259054089       -5.0863185720        1.4220480958
 H          0.2119593881       -5.8788593239       -0.1885323114
 H         -0.1262481086       -3.6665596654       -1.3337824880
 O         -1.4618244845       -0.6370618820        2.2211105007
