  62
        -98.94334061
 C          1.6311586026        1.3904155880        0.2826505014
 C          2.0180050891        0.8545116404       -0.9708626014
 C          2.7794649395       -0.4011562723       -0.9145721784
 C          3.1067591187       -0.9390630112        0.2739392069
 C          3.8903334673       -2.2058646985        0.4850312679
 C          3.0328302396       -3.4775683854        0.4381262136
 C          2.5245957832       -3.8721427454       -0.9491632426
 H          3.3641724266       -3.9188947416       -1.6434972804
 H          2.1157774324       -4.8810038997       -0.8665602265
 C          1.4385652633       -2.9465323510       -1.5166359884
 H          1.0080429099       -2.3501443841       -0.7077805955
 H          0.6279729476       -3.5488147207       -1.9339121337
 C          1.9250182130       -2.0109364283       -2.6244889606
 H          1.0881765881       -1.3796326589       -2.9368855813
 H          2.2389305271       -2.5993568166       -3.4894792851
 C          3.0819625333       -1.0911438678       -2.2103229352
 H          4.0079341099       -1.6604418253       -2.1365862667
 H          3.2020883422       -0.3232673994       -2.9785018591
 H          2.1842345739       -3.3448049676        1.1111130775
 H          3.6431777094       -4.2976151387        0.8229854164
 H          4.3415000732       -2.1317355805        1.4767469274
 H          4.6883854229       -2.2724249276       -0.2547130325
 O          2.7638289571       -0.3632576132        1.4557466536
 C          1.9978094559        0.7902747909        1.4887459990
 O          1.7169836799        1.1858923179        2.6376983483
 O          1.7338454251        1.3732386378       -2.0821334068
 C          0.7814874963        2.6387999479        0.3811033687
 C         -0.6454319039        2.4281711894       -0.0774223953
 C         -1.5720524930        3.4589087273        0.0594627406
 C         -2.8942508665        3.2815633300       -0.3042175610
 C         -3.3267934901        2.0722766692       -0.8215235576
 C         -2.4098339780        1.0449280949       -0.9761169437
 C         -1.0850072485        1.2213734032       -0.5984400833
 H         -0.3922830274        0.3991167545       -0.7157482085
 N         -2.8559412468       -0.2009503543       -1.4841432206
 S         -3.6141326159       -1.1730423882       -0.3489457468
 O         -4.0194962177       -2.3708500483       -1.0467433590
 O         -4.6585456339       -0.4044059945        0.2762043632
 C         -2.3365913573       -1.5689131773        0.8315470085
 C         -1.6889951575       -2.7837921968        0.7310273120
 C         -0.6410170594       -3.0586589375        1.5946906785
 C         -0.2415793655       -2.1051009371        2.5189924988
 C         -0.8979031351       -0.8866641644        2.6044076923
 C         -1.9617846132       -0.6153205553        1.7582512611
 H         -2.5028857062        0.3159440080        1.8081996106
 H         -0.5650321470       -0.1410137291        3.3092304369
 H          0.5899894190       -2.3018717124        3.1782847031
 H         -0.1378736882       -4.0110567186        1.5382962311
 H         -2.0230549195       -3.4905252274       -0.0115456067
 H         -2.1178437105       -0.7336923591       -1.9241111330
 H         -4.3557963030        1.9048100039       -1.0933811334
 H         -3.5975427591        4.0908572621       -0.1821479576
 H         -1.2492254689        4.4055077700        0.4631830491
 H          0.7464282656        2.8929291924        1.4507844303
 C          1.4155764026        3.8012610396       -0.3655743315
 C          1.3966573583        5.1831107394        0.2123645679
 C          2.6771816304        4.4064863081        0.1706722651
 H          3.4459168779        4.7012315910       -0.5274776482
 H          3.0608442290        4.0078887045        1.0991522248
 H          1.2805267695        6.0198462858       -0.4595212522
 H          0.9347263068        5.3234882654        1.1782718739
 H          1.3358337592        3.6998922983       -1.4410995109
