  62
        -98.94369268
 C         -1.7608073946       -0.4867914320        0.4947723758
 C         -2.9511675865       -0.4524214966        1.2589846815
 C         -4.1946072878       -0.6780884237        0.5139074973
 C         -4.1451976589       -0.9200617058       -0.8089356432
 C         -5.3251968964       -1.1906443701       -1.7026764264
 C         -6.0256335949        0.0765787646       -2.2120033360
 C         -6.8472480024        0.8310312270       -1.1659168548
 H         -7.4524452214        1.5649529241       -1.7018632284
 H         -7.5333603551        0.1394129839       -0.6760256792
 C         -6.0080023487        1.5618820160       -0.1085218369
 H         -4.9793892293        1.6592634585       -0.4638262758
 H         -6.3955660882        2.5739598255        0.0288342290
 C         -5.9958408045        0.8912399192        1.2652979912
 H         -5.3441193003        1.4708629970        1.9243344218
 H         -7.0021340018        0.9069917464        1.6897614656
 C         -5.4915271588       -0.5579070692        1.2558336298
 H         -5.3133174398       -0.8655915551        2.2891636844
 H         -6.2434199050       -1.2151446435        0.8197520259
 H         -5.2727379481        0.7452845839       -2.6356189642
 H         -6.6957678324       -0.2241371249       -3.0206240537
 H         -4.9419869085       -1.7414459221       -2.5642620749
 H         -6.0451166508       -1.8204817170       -1.1794338163
 O         -2.9773386791       -0.9659066226       -1.5033101807
 C         -1.7607379787       -0.7284816160       -0.8791404307
 O         -0.7767536218       -0.7673048391       -1.6408540740
 O         -2.9732292257       -0.2404916973        2.5015458057
 C         -0.4340723650       -0.2366806966        1.1873349199
 C          0.2499640676        0.9646718016        0.5835156253
 C         -0.4832930555        2.1333768496        0.3908956136
 C          0.1023397941        3.2505532401       -0.1704117594
 C          1.4357789025        3.2319863204       -0.5412630946
 C          2.1800644243        2.0762124226       -0.3432300671
 C          1.5861837356        0.9530523443        0.2178722809
 H          2.1809311267        0.0682856115        0.3674355027
 N          3.5242512115        2.0178129506       -0.7322163142
 S          4.6388765093        1.1341062843        0.1406306899
 O          4.3841472080        1.2042764131        1.5606556839
 O          5.9223397018        1.6432532783       -0.2947400187
 C          4.4584542393       -0.5414893383       -0.4334019394
 C          4.1661692204       -0.7754758971       -1.7621807499
 C          4.0622969202       -2.0851526336       -2.2027435982
 C          4.2586875371       -3.1325120432       -1.3156750667
 C          4.5584630411       -2.8809376953        0.0141322728
 C          4.6604410087       -1.5732895229        0.4619845274
 H          4.8808598935       -1.3311124619        1.4897154000
 H          4.7104796736       -3.6971485778        0.7026211623
 H          4.1752579577       -4.1506085909       -1.6621418090
 H          3.8239641633       -2.2843527146       -3.2351891467
 H          4.0115530829        0.0594288184       -2.4250083988
 H          3.9108324026        2.8767910408       -1.0938033101
 H          1.8946314975        4.1033203818       -0.9832873552
 H         -0.4813583737        4.1468602684       -0.3183115947
 H         -1.5245049300        2.1506600063        0.6836155894
 H         -0.6885487163        0.0048724785        2.2305749372
 C          0.4132674758       -1.4914452259        1.1712982631
 C          1.4163476758       -1.7421812804        2.2559845579
 C          0.1566285666       -2.5514366500        2.1985916176
 H          0.2213428197       -3.5864008341        1.8988003609
 H         -0.6133845249       -2.3557690882        2.9305645387
 H          2.3463890531       -2.2223846554        1.9923124525
 H          1.5124370067       -0.9971658674        3.0316071139
 H          0.6557185707       -1.8165915277        0.1654550052
