  62
        -98.94360224
 C         -1.8007349511       -0.5426909462        0.3841624191
 C         -2.9573573937       -0.5669711206        1.1988121065
 C         -4.2326760546       -0.7275093221        0.4917978693
 C         -4.2408386293       -0.8627304683       -0.8470775938
 C         -5.4597948610       -1.0540944827       -1.7084484567
 C         -6.1696065367        0.2540146255       -2.0839447568
 C         -6.9393316315        0.9266330659       -0.9465360555
 H         -7.6106409756        0.2018586517       -0.4849057706
 H         -7.5595654331        1.7049444984       -1.3956121405
 C         -6.0497318620        1.5650027209        0.1294275895
 H         -6.4217310814        2.5649730568        0.3640364607
 H         -5.0360623871        1.6847158696       -0.2603911046
 C         -5.9861794115        0.7857195916        1.4431808826
 H         -6.9735698784        0.7731443682        1.9100283488
 H         -5.3019388657        1.3063837413        2.1182818276
 C         -5.4961337936       -0.6608221427        1.2955834728
 H         -6.2716502956       -1.2762612048        0.8403583148
 H         -5.2774212126       -1.0520888623        2.2922070429
 H         -6.8760886944        0.0232722004       -2.8846157118
 H         -5.4292305317        0.9503354652       -2.4845382753
 H         -6.1626562137       -1.7200097768       -1.2071572267
 H         -5.1182690340       -1.5358026656       -2.6270686121
 O         -3.1035296348       -0.8584590207       -1.5919983627
 C         -1.8601214791       -0.6760588623       -1.0031841733
 O         -0.9089919866       -0.6587181458       -1.8063355566
 O         -2.9252888872       -0.4559085995        2.4542562904
 C         -0.4450497254       -0.3528768493        1.0378527902
 C          0.2325351589        0.8843108949        0.5025671737
 C         -0.5069950025        2.0568761019        0.3661952954
 C          0.0756896398        3.2078332904       -0.1255707353
 C          1.4147133877        3.2211398962       -0.4754361250
 C          2.1664211211        2.0628089105       -0.3288400602
 C          1.5741399077        0.9037913800        0.1557093045
 H          2.1754646312        0.0167192395        0.2622838653
 N          3.5216685401        2.0390370121       -0.6868994256
 S          4.6256063935        1.2032198683        0.2496513721
 O          4.2754722836        1.2427051753        1.6502929142
 O          5.9067409444        1.7814589718       -0.0978388812
 C          4.5734914939       -0.4720006111       -0.3505447064
 C          4.4031006370       -0.7011213395       -1.7013509097
 C          4.4065370375       -2.0076558540       -2.1630491638
 C          4.5886528564       -3.0563982656       -1.2743544662
 C          4.7657915207       -2.8092094725        0.0780408323
 C          4.7583503961       -1.5048097326        0.5471994083
 H          4.8797865257       -1.2674822405        1.5922380952
 H          4.9074241141       -3.6260871128        0.7680171294
 H          4.5906486745       -4.0721084688       -1.6374434997
 H          4.2649064150       -2.2038504138       -3.2137203970
 H          4.2594748860        0.1351420270       -2.3648885162
 H          3.8946768938        2.9192734492       -1.0109542248
 H          1.8725899127        4.1197746961       -0.8603358988
 H         -0.5143174354        4.1058289742       -0.2326350584
 H         -1.5517071093        2.0509427102        0.6465906707
 H         -0.6553446046       -0.1889374706        2.1059386180
 C          0.3868911634       -1.6101519680        0.8950264491
 C          1.4056163080       -1.9680328828        1.9341235739
 C          0.1335907880       -2.7530102069        1.8303252035
 H          0.1781386821       -3.7584628649        1.4400548018
 H         -0.6208738952       -2.6122283147        2.5905906187
 H          2.3232662721       -2.4358952596        1.6114104855
 H          1.5258648846       -1.2951382605        2.7700554687
 H          0.6056763668       -1.8477366651       -0.1402259443
