  62
        -98.94212703
 C         -1.2989970927       -1.3015396155        0.8176465869
 C         -2.2703920256       -0.8910069675       -0.1230269069
 C         -2.9333703824        0.4012829161        0.1313949971
 C         -2.5411495821        1.1516114465        1.1770263364
 C         -3.0161255338        2.4995345508        1.6787757808
 C         -3.9571784107        3.3564801450        0.8378664725
 C         -3.3247819472        3.9445080723       -0.4238823687
 H         -4.1106373638        4.4321712643       -1.0055117334
 H         -2.6062412160        4.7122539496       -0.1252866673
 C         -2.5846019119        2.9564523426       -1.3227719696
 H         -2.1681601544        3.5193918178       -2.1636763015
 H         -1.7344114738        2.5235038510       -0.7901573514
 C         -3.4394225331        1.8301109802       -1.8994107069
 H         -4.2887360325        2.2524103152       -2.4414868621
 H         -2.8191281453        1.2847896541       -2.6164658068
 C         -3.9678333239        0.8112774865       -0.8772651824
 H         -4.8645499433        1.1776011271       -0.3830716313
 H         -4.2393258952       -0.0982398115       -1.4218027000
 H         -4.2661992829        4.1935030861        1.4700860426
 H         -4.8561540094        2.7984457633        0.5931728533
 H         -3.4926805012        2.3051484288        2.6462601644
 H         -2.1075726613        3.0729130904        1.8910122171
 O         -1.5783427995        0.7241893230        2.0456064637
 C         -0.9316971582       -0.4880626891        1.8860654602
 O         -0.0616917740       -0.7224071125        2.7504726775
 H          1.1363350726       -0.6049130751        0.0687024080
 C          1.0614003417       -1.2620356921       -0.7842440075
 C          0.2697816873       -2.4007593353       -0.6884293150
 C          0.1951930756       -3.2536727880       -1.7797846230
 C          0.8611846563       -2.9382929634       -2.9528701539
 C          1.5895197674       -1.7689258378       -3.0665069605
 C          1.6875578618       -0.9183796949       -1.9688844659
 N          2.4225593839        0.2712324061       -2.0413836742
 S          2.1107796881        1.5749239583       -1.0414104173
 O          0.7147062237        1.6940205288       -0.6943346157
 O          2.6851860390        2.6999341215       -1.7513760557
 C          3.1129143722        1.2381054266        0.3900710017
 C          4.4705317671        1.0739496397        0.1902405960
 C          5.2825483863        0.8102454188        1.2802791002
 C          4.7264387980        0.7143095198        2.5477881709
 C          3.3639614734        0.8862017682        2.7328404718
 C          2.5470031846        1.1542530519        1.6450160851
 H          1.4809611509        1.2789392064        1.7600913905
 H          2.9211479139        0.8035289005        3.7125694511
 H          5.3569503248        0.5043214099        3.3973834033
 H          6.3433521534        0.6780692385        1.1407361347
 H          4.8617572626        1.1619392671       -0.8095053383
 H          2.7158060301        0.5480015956       -2.9658665835
 H          2.0737808950       -1.5084857276       -3.9952219810
 H          0.7900955923       -3.6025669432       -3.8009241235
 H         -0.3999598538       -4.1500648206       -1.7228131890
 C         -0.5071519290       -2.5807141811        0.5942264592
 H          0.2070376379       -2.6474146030        1.4275339395
 C         -1.4027617559       -3.7990717353        0.6118476535
 C         -0.8324665830       -5.1409674091        0.9575085516
 C         -1.7332298734       -4.4372648194        1.9263862613
 H         -2.7317164077       -4.8194336771        2.0765509591
 H         -1.2947191760       -4.0029921703        2.8132001220
 H         -1.2135356084       -6.0111532563        0.4449445997
 H          0.2204366485       -5.1909057073        1.1901120749
 H         -2.1895055152       -3.7503746501       -0.1314393511
 O         -2.5862142597       -1.5730053824       -1.1337005563
