  62
        -98.94144411
 C         -1.4783614819       -1.1967808036        0.0231972995
 C         -2.5269170605       -0.7489505047        0.8549420212
 C         -3.1229048182        0.5554894379        0.5220443807
 C         -2.6359096079        1.2568689485       -0.5193002586
 C         -2.9942806432        2.6306528315       -1.0469125331
 C         -4.2870020389        3.3222331898       -0.6214179195
 C         -5.5668089362        2.6461642726       -1.1123393188
 H         -6.4183655493        3.1686393244       -0.6711924898
 H         -5.6279153152        2.7650634577       -2.1968888997
 C         -5.6837461576        1.1556178851       -0.8042594661
 H         -4.8946375066        0.6107418541       -1.3263069624
 H         -6.6382530238        0.8052506098       -1.2059214021
 C         -5.6414738810        0.7891807181        0.6779163114
 H         -5.8993045729       -0.2698603973        0.7622512179
 H         -6.3963558038        1.3614149266        1.2204338432
 C         -4.2825909256        0.9890874303        1.3722678528
 H         -4.1519396722        2.0173115401        1.7026411123
 H         -4.2621263338        0.3553908330        2.2641109570
 H         -4.2569182317        4.3267061334       -1.0524716800
 H         -4.3098787702        3.4453906327        0.4574747420
 H         -2.9769351466        2.5443542969       -2.1381418617
 H         -2.1480960775        3.2727676031       -0.7750992826
 O         -1.6096880133        0.7893333643       -1.2860763499
 C         -0.9924159676       -0.4193879726       -1.0271793890
 O         -0.0518713267       -0.6935011506       -1.7969051115
 O         -2.9393083570       -1.4046693279        1.8524198053
 C         -0.7914967546       -2.5161800662        0.3308801554
 C          0.6790741200       -2.2598846466        0.5449071194
 C          1.6903317137       -3.0091320495       -0.0420765797
 C          3.0184025485       -2.6527921125        0.1225247639
 C          3.3639630042       -1.5310876165        0.8541378745
 C          2.3603433151       -0.7930132480        1.4660071373
 C          1.0378322533       -1.1746170971        1.3358034874
 H          0.2641546423       -0.5799320344        1.8067742845
 N          2.7097388338        0.4174653289        2.1377613496
 S          2.4248237224        1.7350558222        1.1133131846
 O          2.8727750951        2.9028148046        1.8441189602
 O          1.0436493061        1.7786407923        0.6789566773
 C          3.5211262389        1.3951758296       -0.2415735800
 C          4.8401345150        1.7900277515       -0.1251970285
 C          5.7236495528        1.4820468386       -1.1465391327
 C          5.2750145811        0.7822379411       -2.2570322844
 C          3.9480477816        0.3934648013       -2.3563192691
 C          3.0556838833        0.6992551840       -1.3396664464
 H          2.0183378811        0.4024655299       -1.3897187291
 H          3.5945509259       -0.1533518697       -3.2156770054
 H          5.9629110010        0.5372800455       -3.0509456025
 H          6.7559906836        1.7837750314       -1.0726798726
 H          5.1378749098        2.3324694001        0.7570520184
 H          2.1662413273        0.5629059394        2.9794416505
 H          4.3897689633       -1.2163564022        0.9544617425
 H          3.7909342013       -3.2410159476       -0.3476437283
 H          1.4358600730       -3.8640599585       -0.6469900242
 H         -1.2330938276       -2.8674190530        1.2754245105
 C         -1.0776138575       -3.5323635092       -0.7544669587
 C         -1.0948271398       -4.9968684648       -0.4354073000
 C         -2.3770850871       -4.2776576981       -0.7243026547
 H         -2.8816100634       -4.4718260548       -1.6588421851
 H         -3.0470529683       -4.0701592437        0.0973593657
 H         -0.7211506805       -5.6897885153       -1.1738994707
 H         -0.8977894625       -5.2884961216        0.5850178006
 H         -0.7020783327       -3.2200895231       -1.7226088492
