  62
        -98.93443726
 C         -2.3224337967       -0.6462959868       -0.0897562996
 C         -3.5054937460       -0.9869135097        0.6028740017
 C         -4.7734599719       -0.4660832567        0.0559834884
 C         -4.7339288060        0.2887679049       -1.0581032460
 C         -5.8802783253        0.9579393502       -1.7685997159
 C         -6.3709276888        2.2210854829       -1.0420053567
 C         -6.5022707545        2.0825156465        0.4725223693
 H         -5.5374925167        1.7888162898        0.8902298042
 H         -6.7428335660        3.0694983729        0.8763909519
 C         -7.5790244380        1.1093851721        0.9465458504
 H         -7.6165720923        1.1728814147        2.0370978903
 H         -8.5486326093        1.4333088969        0.5617889621
 C         -7.3706377826       -0.3570902670        0.5635078952
 H         -7.6296111621       -0.5308770562       -0.4773590444
 H         -8.0687711835       -0.9514219141        1.1602739365
 C         -5.9763748180       -0.9018563499        0.8579949099
 H         -6.0047588682       -1.9950569695        0.7737273679
 H         -5.7270598027       -0.7018666622        1.9063466414
 H         -7.3322981741        2.5126715029       -1.4680583894
 H         -5.6556797172        3.0228221076       -1.2410746875
 H         -5.5110521549        1.2460391373       -2.7552410231
 H         -6.6928273691        0.2520496132       -1.9123132014
 O         -3.5651520253        0.5918513830       -1.6937735837
 C         -2.3398896788        0.1420832507       -1.2391866503
 O         -1.3675975346        0.5026273638       -1.9298298074
 O         -3.5094263438       -1.6925216467        1.6486491581
 C         -0.9920183864       -1.1612955972        0.4252007355
 C         -0.0534847743       -0.0151584461        0.7101834437
 C         -0.5041958258        1.0488831374        1.4884245189
 C          0.3270420983        2.1115219726        1.7827702990
 C          1.6324881449        2.1299616507        1.3230714470
 C          2.0927358674        1.0737616631        0.5471012703
 C          1.2510670470        0.0113470214        0.2454177631
 H          1.6372581941       -0.7922668181       -0.3584646181
 N          3.4046145768        1.0694801048        0.0467547461
 S          4.2152499034       -0.4068866232       -0.0649191007
 O          3.8608943808       -1.0480770767       -1.3058690520
 O          4.0020029438       -1.1788752701        1.1385551980
 C          5.9061446822        0.1564933175       -0.1422081149
 C          6.4293431810        0.5319266782       -1.3651606512
 C          7.7345633844        0.9943286205       -1.4217528540
 C          8.4905529815        1.0738243747       -0.2615277240
 C          7.9525768030        0.6920372116        0.9583273089
 C          6.6475944110        0.2294918419        1.0221686846
 H          6.1916262813       -0.0885476982        1.9459667149
 H          8.5439584511        0.7516645484        1.8577596465
 H          9.5064844530        1.4328452715       -0.3090067287
 H          8.1572320695        1.2889159748       -2.3687653615
 H          5.8069350387        0.4438379669       -2.2405179217
 H          3.9852298205        1.7889931210        0.4550319937
 H          2.2844590248        2.9580998454        1.5561617539
 H         -0.0400575600        2.9299015736        2.3839373284
 H         -1.5210509935        1.0299645688        1.8572022064
 H         -1.2190664332       -1.6600950908        1.3800238546
 C         -0.4192726280       -2.1859568137       -0.5310124924
 C          0.5166743233       -3.2443268986       -0.0313950245
 C         -0.8774812250       -3.6094146091       -0.4417649937
 H         -1.0180127457       -4.1643082179       -1.3571589565
 H         -1.5910760474       -3.8518927776        0.3321132372
 H          1.3408618918       -3.5408072655       -0.6634806539
 H          0.7571096553       -3.2418231453        1.0213662382
 H         -0.2423624494       -1.7780804224       -1.5208560895
