  62
        -98.93920899
 C         -2.4747678302       -1.0508799296        0.3589956606
 C         -2.5778045904        0.1523152108        1.1068486399
 C         -3.8158793405        0.9207139206        0.9433100493
 C         -4.7882151703        0.4506051401        0.1413441795
 C         -6.1297882904        1.0887267798       -0.0974580510
 C         -6.1208976804        2.1828868692       -1.1733814216
 C         -5.4421342806        3.4902813195       -0.7635618223
 H         -5.6963590706        4.2349349990       -1.5203434227
 H         -5.8584111507        3.8333456200        0.1840105675
 C         -3.9133966806        3.4014874297       -0.6537272621
 H         -3.5604983404        2.5070954194       -1.1727100515
 H         -3.4606688206        4.2600129195       -1.1549255925
 C         -3.3791591007        3.3822325806        0.7787519680
 H         -2.2911168807        3.2796768207        0.7375339881
 H         -3.6089089408        4.3311797308        1.2686819474
 C         -3.9295404807        2.2407478610        1.6439616886
 H         -4.9664808307        2.4400592011        1.9143464884
 H         -3.3326752307        2.1844758016        2.5577275687
 H         -5.6382625403        1.7872964587       -2.0698870713
 H         -7.1614042704        2.4014264589       -1.4239944218
 H         -6.7986786103        0.2897731895       -0.4242396006
 H         -6.5097033305        1.4998995103        0.8382068788
 O         -4.6614651402       -0.7125251103       -0.5458330898
 C         -3.5046025801       -1.4778186202       -0.4804636293
 O         -3.5469545299       -2.4906810706       -1.2059214887
 O         -1.6777019605        0.5576797414        1.8923370797
 C         -1.1960787501       -1.8504247493        0.5360205512
 C         -0.1978962601       -1.5991070099       -0.5697438289
 C         -0.5064360499       -1.8511042307       -1.9023422388
 C          0.4360716102       -1.6298814211       -2.8897454688
 C          1.6982957301       -1.1622227108       -2.5703127290
 C          2.0216770799       -0.9193777400       -1.2398397791
 C          1.0708417499       -1.1351560596       -0.2519563890
 H          1.3246757597       -0.9225660489        0.7755629709
 N          3.3185978799       -0.5038109197       -0.8939166092
 S          3.5728732096        0.4888596311        0.4456931003
 O          3.4097763996       -0.2946793082        1.6441014807
 O          2.7728167095        1.6890417110        0.3411392495
 C          5.2995718796        0.8692287011        0.2148895202
 C          5.6726323695        2.1057812909       -0.2757761304
 C          7.0194129795        2.3715389009       -0.4696664905
 C          7.9642615896        1.4006843012       -0.1740525598
 C          7.5744508697        0.1639536814        0.3188549008
 C          6.2302513997       -0.1073385486        0.5169584109
 H          5.8810062297       -1.0493226584        0.9063147814
 H          8.3120822397       -0.5874953884        0.5500086213
 H          9.0113407996        1.6099615412       -0.3260178298
 H          7.3255825095        3.3331464907       -0.8490010610
 H          4.9033343995        2.8317488107       -0.4848960509
 H          3.8464077599       -0.1764622201       -1.6919205393
 H          2.4312594601       -0.9918210512       -3.3442719090
 H          0.1835522303       -1.8223024317       -3.9217083787
 H         -1.4906145598       -2.2148272809       -2.1543127787
 H         -0.7514929703       -1.4720408588        1.4675484610
 C         -1.4292834200       -3.3415596193        0.6915762620
 C         -0.3813374000       -4.1691378888        1.3704287725
 C         -1.6886902001       -3.9054196285        2.0544662623
 H         -2.3963168500       -4.7151222886        2.1499688827
 H         -1.6989852202       -3.2157024981        2.8862720219
 H         -0.1881776798       -5.1626832190        0.9963544431
 H          0.4963228999       -3.6585611085        1.7388450723
 H         -1.9619561099       -3.7819924298       -0.1410140778
