  62
        -98.93687662
 C         -2.1492714078       -0.9742020097       -0.0310147761
 C         -2.8857435146       -0.2880461954        0.9621622672
 C         -3.7272126130        0.8233403450        0.4938596680
 C         -3.7227526966        1.1410806094       -0.8139073264
 C         -4.5823221069        2.1918363514       -1.4574374892
 C         -6.0197474258        1.6606981463       -1.6305942624
 C         -7.0692593625        2.3987510676       -0.7992737627
 H         -7.2784572793        3.3632409504       -1.2666825724
 H         -7.9878514484        1.8092889377       -0.8346844484
 C         -6.7003205042        2.6586883638        0.6645370556
 H         -6.0351491365        3.5212052471        0.7284240176
 H         -7.6217320108        2.9381706795        1.1798084573
 C         -6.0552344645        1.4851222551        1.4130349604
 H         -6.3311662844        0.5362718721        0.9524850823
 H         -6.4519189810        1.4717420934        2.4302949997
 C         -4.5217476273        1.5662607653        1.5323487737
 H         -4.2117525285        2.6150873791        1.5500164475
 H         -4.2214726454        1.1205150819        2.4855428694
 H         -6.3076473540        1.7266599419       -2.6808067303
 H         -6.0264374821        0.6004480959       -1.3692580964
 H         -4.5779396078        3.0942654609       -0.8500848718
 H         -4.1423322445        2.4213027614       -2.4280598121
 O         -2.9743258595        0.4786720223       -1.7336473591
 C         -2.1711704799       -0.5936949176       -1.3727398785
 O         -1.5409192064       -1.1049021023       -2.3160137582
 H          0.0547435355        0.1217070829        0.8045071947
 C          0.6972931328       -0.6203982701        0.3451260931
 C          0.1717606319       -1.8693452960        0.0362994491
 C          1.0130548800       -2.8153089299       -0.5341805072
 C          2.3348042967       -2.5056323471       -0.8057885184
 C          2.8465651660       -1.2549047235       -0.5151609474
 C          2.0183420205       -0.3050572739        0.0688345870
 N          2.5274143450        0.9734526484        0.3616662702
 S          3.9285383229        1.0662310240        1.2844869053
 O          4.0506571418       -0.0657655386        2.1738468083
 O          3.8850245112        2.3713391717        1.9074872352
 C          5.2399178556        1.0415352973        0.0808390503
 C          6.2350632478        0.0876480216        0.1664010940
 C          7.2519194258        0.0942618144       -0.7758033574
 C          7.2555145437        1.0495267134       -1.7806482214
 C          6.2497197552        2.0020898922       -1.8510268098
 C          5.2312083794        2.0021223514       -0.9114684462
 H          4.4336282485        2.7261125750       -0.9287082847
 H          6.2555151271        2.7431237253       -2.6340928063
 H          8.0467204503        1.0521875771       -2.5136236973
 H          8.0348723850       -0.6449980529       -0.7227008408
 H          6.1869703627       -0.6387891077        0.9618243622
 H          1.8311825374        1.6124930837        0.7175770867
 H          3.8725397639       -1.0077786671       -0.7335543884
 H          2.9745952160       -3.2493237201       -1.2556203321
 H          0.6332393304       -3.7955139551       -0.7706548248
 C         -1.2730297897       -2.1437182343        0.3765810011
 H         -1.3552803893       -2.2028038145        1.4728183946
 C         -1.8027249642       -3.4310327564       -0.2202787963
 C         -1.6138451656       -4.7332228806        0.4971631512
 C         -2.9713275520       -4.1022194074        0.4349256885
 H         -3.7248748926       -4.5545784857       -0.1921056913
 H         -3.3662085028       -3.6452510768        1.3308179994
 H         -1.4376559683       -5.6235124252       -0.0874447573
 H         -1.0893295946       -4.7129231809        1.4405966220
 H         -1.7687781500       -3.4302454242       -1.3039458532
 O         -2.8356945903       -0.5868308024        2.1873991992
