  62
        -98.94565229
 C         -1.5850008412       -0.9854419046        0.1001508746
 C         -2.5481470615       -0.6505583543        1.0798055240
 C         -3.2012358326        0.6559279857        0.9177608435
 C         -2.8258295965        1.4579578518       -0.0956044994
 C         -3.4463629561        2.7880531030       -0.4088064243
 C         -4.6108838411        2.6359045007       -1.3977069963
 C         -5.6152469461        1.5508440554       -1.0090841128
 H         -6.4070953707        1.5567107242       -1.7612153800
 H         -5.1267413082        0.5753249003       -1.0647352454
 C         -6.2339171795        1.7271541296        0.3847041859
 H         -6.0944476579        2.7538020240        0.7255378223
 H         -7.3097022730        1.5526207707        0.3154331475
 C         -5.6947665945        0.7643008133        1.4442345469
 H         -5.7489926326       -0.2609070247        1.0691201439
 H         -6.3437620823        0.8256685840        2.3219761422
 C         -4.2598066225        1.0291632708        1.9170634786
 H         -4.1582925793        2.0743840996        2.2171534903
 H         -4.0783198204        0.4015467865        2.7948800560
 H         -5.1232607070        3.5963791245       -1.4773118756
 H         -4.2013760212        2.3865369487       -2.3792151243
 H         -3.7972171139        3.2472494073        0.5134694806
 H         -2.6842367970        3.4292370369       -0.8549676575
 O         -1.8597889423        1.1227975126       -0.9882855701
 C         -1.2280090424       -0.1138134164       -0.9295186475
 O         -0.3847986171       -0.3030351511       -1.8227311092
 H          0.4026480125       -0.5195276557        1.6543864583
 C          1.1011318608       -1.1306106418        1.0954775305
 C          0.6119979374       -2.1353450158        0.2696836283
 C          1.5230685082       -2.9113530223       -0.4347855660
 C          2.8828826544       -2.6759898661       -0.3216782919
 C          3.3637393823       -1.6643818422        0.4882036833
 C          2.4606058029       -0.8847360448        1.1999563742
 N          2.9370239359        0.1641849033        2.0078611664
 S          4.0582196260        1.1991985915        1.3140403146
 O          5.3760952621        0.6288296775        1.4448095145
 O          3.8579704609        2.4713156193        1.9734113735
 C          3.6146551120        1.3048564230       -0.4103551875
 C          2.3576235594        1.7755247271       -0.7337680935
 C          1.9839640726        1.8329818434       -2.0656851280
 C          2.8716980367        1.4193488963       -3.0468891506
 C          4.1330821041        0.9560274504       -2.7074373873
 C          4.5109005018        0.8948420967       -1.3758851208
 H          5.4789577527        0.5358094255       -1.0663327094
 H          4.8197727199        0.6365469149       -3.4747764685
 H          2.5719536472        1.4561414516       -4.0822022937
 H          0.9966072238        2.1757309394       -2.3296137786
 H          1.6859678257        2.0881544472        0.0509656101
 H          2.2040633734        0.6875665997        2.4640546546
 H          4.4185492022       -1.4637289853        0.5832712384
 H          3.5781768280       -3.2858547904       -0.8776060046
 H          1.1685131155       -3.6984127931       -1.0794934277
 C         -0.8821983129       -2.3277414095        0.1807776231
 H         -1.2270249578       -2.7853137375        1.1204182482
 C         -1.3079840807       -3.2090545869       -0.9755429104
 C         -1.3732407245       -4.6975881332       -0.8145118215
 C         -2.6369646308       -3.8977720655       -0.9065550039
 H         -3.2302708491       -3.9673428602       -1.8059992114
 H         -3.2216293188       -3.7570426541       -0.0088812357
 H         -1.1010740448       -5.3196006883       -1.6538666208
 H         -1.1049355744       -5.1099765237        0.1463885979
 H         -1.0012497835       -2.8087019321       -1.9353424458
 O         -2.8437095607       -1.4045585457        2.0470790789
