  62
        -98.94067206
 C          1.9497894831        0.8490488081        0.7171901369
 C          1.8732321592        0.1883275528       -0.5344880320
 C          2.0984019138       -1.2627548156       -0.5045833894
 C          2.2717414071       -1.8931418420        0.6695844621
 C          2.4719979775       -3.3720308976        0.8633250567
 C          3.9222293661       -3.8385937629        0.6742240260
 C          4.4211853782       -3.8460454892       -0.7713002160
 H          5.3644564314       -4.3955588131       -0.7810852706
 H          3.7155592268       -4.3968692794       -1.3938112470
 C          4.6562276466       -2.4512187525       -1.3675332917
 H          4.7097030443       -1.7153535258       -0.5618905464
 H          5.6188705537       -2.4325705105       -1.8831087032
 C          3.5945312942       -2.0052708489       -2.3730611139
 H          3.8394426490       -0.9930793208       -2.7045939441
 H          3.6180673139       -2.6606687503       -3.2463442693
 C          2.1655057491       -1.9879363718       -1.8142372900
 H          1.7890657172       -3.0048015739       -1.7035034783
 H          1.5211425791       -1.4540633347       -2.5171518812
 H          4.5732483574       -3.2058974004        1.2819496947
 H          3.9890022535       -4.8565601232        1.0648940344
 H          1.8174169936       -3.9187582562        0.1835942953
 H          2.1678788940       -3.5931764360        1.8889398570
 O          2.2633954258       -1.2338716049        1.8601951946
 C          2.1066615432        0.1417406531        1.9103730833
 O          2.1211999729        0.6132204563        3.0670910238
 O          1.6382216135        0.7668688064       -1.6265626400
 C          1.7055823180        2.3443693889        0.8427400670
 C          0.4667697002        2.6984830600        0.0563859456
 C          0.4114849201        3.6852168958       -0.9179978933
 C         -0.7618851897        3.9065946732       -1.6188466848
 C         -1.8898410962        3.1455386984       -1.3763399806
 C         -1.8468365052        2.1631077229       -0.3923752569
 C         -0.6828005047        1.9663657139        0.3285424067
 H         -0.6563506513        1.1973498624        1.0889031987
 N         -2.9783706729        1.3784757080       -0.1032850726
 S         -2.7377164780       -0.2173044085        0.3937507939
 O         -2.4627975961       -0.2237196830        1.8102886174
 O         -1.7697868255       -0.8782346824       -0.4522754186
 C         -4.3684299986       -0.8794409107        0.1018257901
 C         -4.6293747511       -1.5387416406       -1.0845358583
 C         -5.9089896677       -2.0178025341       -1.3182078030
 C         -6.9012848450       -1.8274744903       -0.3683127092
 C         -6.6241480029       -1.1646835498        0.8182210600
 C         -5.3466935212       -0.6839832012        1.0583565555
 H         -5.0801522509       -0.1709469836        1.9676650531
 H         -7.3970296302       -1.0211674681        1.5558607830
 H         -7.8960996859       -2.2009542791       -0.5526132575
 H         -6.1259097127       -2.5364902842       -2.2380789174
 H         -3.8234699819       -1.6704354828       -1.7888568653
 H         -3.6859907057        1.4356009912       -0.8234297542
 H         -2.7945156102        3.3026193019       -1.9438392206
 H         -0.7909278465        4.6702776287       -2.3813464481
 H          1.2927862777        4.2596234460       -1.1514841157
 H          1.4787691540        2.5032598306        1.9109175276
 C          2.9097496475        3.2157755729        0.5201245873
 C          4.3041197127        2.6824525896        0.6566625012
 C          3.7530165574        3.0000385511       -0.6991276305
 H          4.1370317512        3.8681295674       -1.2148471418
 H          3.4827503573        2.1857690652       -1.3518033100
 H          5.0622311049        3.3291512449        1.0723993222
 H          4.4146972791        1.6441312127        0.9352497634
 H          2.7592625451        4.2443882667        0.8334951504
