  62
        -98.94418656
 C         -1.8660453698       -1.3545728005        0.6004179606
 C         -2.6309039597       -0.8265567605       -0.4691976195
 C         -3.2912161597        0.4593722195       -0.2037489396
 C         -3.1136981697        1.0788130896        0.9763335303
 C         -3.7098500597        2.3977064097        1.3863017602
 C         -2.9150351696        3.6138299996        0.8909548702
 C         -3.0385313094        3.9056617695       -0.6053667999
 H         -4.0931751594        3.9433434695       -0.8799720300
 H         -2.6259112193        4.9026809995       -0.7730166499
 C         -2.3034537994        2.9076655594       -1.5115081397
 H         -1.5765897695        2.3436648494       -0.9227522496
 H         -1.7462384793        3.4540270193       -2.2754624797
 C         -3.2140516994        1.9200266394       -2.2402635097
 H         -3.8613093993        2.4582918794       -2.9363516198
 H         -2.5853536193        1.2398564493       -2.8201667296
 C         -4.0934246495        1.0732003695       -1.3118073398
 H         -4.9026163695        1.6783274496       -0.9035983299
 H         -4.5266640495        0.2596342195       -1.8988196897
 H         -1.8642830996        3.4679856495        1.1507864003
 H         -3.2779797696        4.4857471896        1.4400521901
 H         -4.7392027197        2.4628561997        1.0329182601
 H         -3.7162044398        2.4106975597        2.4782963002
 O         -2.3473271799        0.5518439596        1.9685155905
 C         -1.6990799399       -0.6574582804        1.8001803006
 O         -1.0106116800       -1.0076748904        2.7816031607
 H          1.1958214800       -1.8441336006        1.5513619610
 C          1.2805878901       -1.9122088907        0.4745911610
 C          0.1854770802       -2.3499695307       -0.2597835891
 C          0.2896845703       -2.4039241108       -1.6443526891
 C          1.4684401604       -2.0344278609       -2.2690070990
 C          2.5608929004       -1.6073890509       -1.5345904289
 C          2.4618975702       -1.5404451608       -0.1504365989
 N          3.5629459602       -1.1178170808        0.6189282512
 S          4.3330870703        0.3138369391        0.2312308311
 O          5.0239247104        0.1563050390       -1.0234442688
 O          5.1540203202        0.6210345391        1.3797803112
 C          3.0420750304        1.5322869192        0.0637229909
 C          2.5184891805        1.8088522491       -1.1831566092
 C          1.5061020106        2.7487852392       -1.2893351093
 C          1.0377851905        3.3929591993       -0.1545779594
 C          1.5678790604        3.0971945793        1.0919249007
 C          2.5772991003        2.1551684893        1.2049300508
 H          3.0241779702        1.9081837893        2.1547615109
 H          1.1997605203        3.5961925494        1.9744424306
 H          0.2573744406        4.1323284093       -0.2434382595
 H          1.0864418607        2.9767368991       -2.2558784394
 H          2.9180784306        1.2987363390       -2.0438979991
 H          3.3896139101       -1.1558507107        1.6131985211
 H          3.4851116504       -1.3219866710       -2.0104569888
 H          1.5389465005       -2.0809836910       -3.3452389090
 H         -0.5619326296       -2.7118733608       -2.2287728691
 C         -1.0925926599       -2.6606300506        0.4813379708
 H         -0.8212715900       -2.9420753405        1.5078406509
 C         -1.8942896699       -3.7896152805       -0.1284230392
 C         -1.3767273500       -5.1901513606       -0.0040871190
 C         -2.5844243901       -4.7653410804        0.7746699508
 H         -3.5504626301       -5.1459686704        0.4787344107
 H         -2.4804351802       -4.6239786304        1.8409280208
 H         -0.4514798001       -5.3344645906        0.5336480911
 H         -1.5112689700       -5.8654530206       -0.8349574690
 H         -2.4059036698       -3.5186097706       -1.0417428593
 O         -2.7721330196       -1.3814432606       -1.5888147895
