  62
        -98.94006589
 C          1.9429664273        1.4023669152        0.0786992771
 C          1.7721929702        0.0848465983       -0.4131305162
 C          3.0109028524       -0.6425903041       -0.7353152596
 C          4.2004470232       -0.0393533998       -0.5639120514
 C          5.5340551653       -0.6821587042       -0.8092689218
 C          6.0740416276       -1.3433305680        0.4664626941
 C          5.0595338508       -2.2431104352        1.1724908883
 H          5.5601341595       -2.6792875709        2.0397587387
 H          4.2397200891       -1.6285687474        1.5518714918
 C          4.4862455530       -3.3650493816        0.2954552384
 H          5.1313085981       -3.5253175820       -0.5693143869
 H          4.4824685550       -4.2921752676        0.8726495783
 C          3.0506570004       -3.1308364575       -0.1789481698
 H          2.4182826881       -2.8787104055        0.6764863847
 H          2.6747183062       -4.0688246774       -0.5964389469
 C          2.8687629500       -2.0475348249       -1.2496466336
 H          3.5574677511       -2.2288304602       -2.0772547222
 H          1.8458148292       -2.1281097274       -1.6283060354
 H          6.9598061977       -1.9254569602        0.2057734891
 H          6.3771276864       -0.5575737440        1.1624790812
 H          5.4357620391       -1.4223265449       -1.6009006010
 H          6.2344761911        0.0903911961       -1.1313120945
 O          4.3249736639        1.2272409531       -0.0911217082
 C          3.2079869524        1.9658727141        0.2645052364
 O          3.4664093231        3.0933244836        0.7307025178
 H         -1.9856596451        2.0096589651        0.1853717633
 C         -1.5916991668        1.4295807526        1.0052944279
 C         -0.2329887898        1.4432330315        1.2798269863
 C          0.2323003209        0.6747582514        2.3445183156
 C         -0.6283420687       -0.1106797614        3.0857549738
 C         -1.9830538590       -0.1298683487        2.8007618896
 C         -2.4616884295        0.6507248660        1.7595471610
 N         -3.8474787732        0.6476880765        1.4844820760
 S         -4.5009087866       -0.7422523537        0.8149394354
 O         -5.9295980728       -0.5236064159        0.7756126268
 O         -4.0468154686       -1.8809618984        1.5699364084
 C         -3.8657537157       -0.7907838439       -0.8515972718
 C         -2.5390451128       -1.1131796383       -1.0534563588
 C         -2.0352058794       -1.0851258603       -2.3440177516
 C         -2.8581987570       -0.7383344969       -3.4037617455
 C         -4.1900220597       -0.4189618550       -3.1838037517
 C         -4.6994013207       -0.4388200054       -1.8958439599
 H         -5.7267540961       -0.1953362745       -1.6771841600
 H         -4.8287946138       -0.1504736429       -4.0099890969
 H         -2.4579781783       -0.7150076687       -4.4053407214
 H         -0.9936798376       -1.3176343669       -2.4972067642
 H         -1.9052792945       -1.3674932706       -0.2195656129
 H         -4.1467338663        1.4419944942        0.9352369981
 H         -2.6679203023       -0.7486279525        3.3569068636
 H         -0.2439333228       -0.7121999240        3.8961123632
 H          1.2900334873        0.6879267886        2.5730525265
 C          0.7580878625        2.2610508640        0.4864276915
 H          1.1808286283        3.0204303447        1.1654227700
 C          0.1197213665        3.0199326557       -0.6698511117
 C          0.8518466311        3.2455111786       -1.9582574357
 C         -0.3256273319        2.3209910677       -1.9189216665
 H         -1.2440946775        2.6394996280       -2.3906036114
 H         -0.1492517981        1.2590873367       -1.9775418620
 H          1.8385653748        2.8173934241       -2.0593663661
 H          0.7420422249        4.2033649559       -2.4445667562
 H         -0.4958804316        3.8451991752       -0.3247803184
 O          0.6554319870       -0.4670036011       -0.5785614778
