  62
        -98.93569294
 C         -2.4810245603       -0.9214766700        0.4015207599
 C         -2.9991660701        0.1130364801        1.2228142800
 C         -3.9209451899        1.0583337703        0.5797842300
 C         -4.1890169800        0.9223057203       -0.7314319300
 C         -5.0826516698        1.8309668405       -1.5240741000
 C         -4.2903011896        2.9840347604       -2.1551228600
 C         -3.3716114094        3.7108976702       -1.1731861700
 H         -2.5826114695        3.0268969000       -0.8518749101
 H         -2.8889679993        4.5235891401       -1.7202492000
 C         -4.0849298093        4.2782815403        0.0620868300
 H         -3.7263829590        5.2947389802        0.2373932800
 H         -5.1573382593        4.3415396405       -0.1256455499
 C         -3.8423603094        3.4918763803        1.3517218800
 H         -4.2024628192        4.0943411503        2.1899214900
 H         -2.7690457194        3.3427465200        1.4937082100
 C         -4.5345041296        2.1259586204        1.4418580300
 H         -4.4368833397        1.7721533604        2.4724832400
 H         -5.5973246996        2.2369598706        1.2167286401
 H         -4.9987035495        3.6931262805       -2.5873095100
 H         -3.6766952697        2.5804007902       -2.9638571800
 H         -5.8602308797        2.2243480307       -0.8719207799
 H         -5.5491096700        1.2453443306       -2.3181328299
 O         -3.6314031802       -0.0452361798       -1.5003322400
 C         -2.7611662304       -0.9895294300       -0.9647216800
 O         -2.3300640806       -1.8008982800       -1.8027323001
 O         -2.7055881000        0.2383747400        2.4422876700
 C         -1.5622816705       -1.9365639402        1.0585909599
 C         -0.3048410306       -2.1273883705        0.2490575999
 C         -0.0380828408       -3.2793455005       -0.4783438402
 C          1.1316298991       -3.3889033008       -1.2092305802
 C          2.0588288693       -2.3636403809       -1.2250502302
 C          1.8071333596       -1.2098290309       -0.4938797602
 C          0.6332390896       -1.1021861507        0.2380531498
 H          0.4321395599       -0.2013084306        0.8052869598
 N          2.7442582098       -0.1582175311       -0.5084560703
 S          4.3711714197       -0.5961555214       -0.3563490703
 O          4.8649226496       -0.9732610515       -1.6570794804
 O          4.5221610996       -1.5853918315        0.6870804897
 C          5.1108525801        0.9471728984        0.1399446496
 C          5.3779123102        1.1704096184        1.4773406496
 C          5.9439025904        2.3779254083        1.8552035896
 C          6.2285801406        3.3370626082        0.8949598296
 C          5.9544521005        3.0982811483       -0.4436954604
 C          5.3902437002        1.8926000084       -0.8287459304
 H          5.1705368701        1.6588496784       -1.8573908204
 H          6.1802422006        3.8455176882       -1.1872363704
 H          6.6704553208        4.2751744981        1.1916063396
 H          6.1615096305        2.5648317882        2.8944699196
 H          5.1489522300        0.3923142584        2.1879021296
 H          2.5037585000        0.5728735190        0.1472008597
 H          2.9754771393       -2.4426269811       -1.7872315403
 H          1.3242265489       -4.2861526008       -1.7782523702
 H         -0.7585503810       -4.0804141604       -0.4921250801
 H         -1.2787531104       -1.4646954503        2.0141927199
 C         -2.2403389808       -3.2509935501        1.4171033399
 C         -3.6723861007       -3.2785257898        1.8584173300
 C         -3.2787769009       -3.8974707998        0.5524266600
 H         -3.2790514211       -4.9751491798        0.4765629700
 H         -3.5565019509       -3.3976525398       -0.3621072900
 H         -3.9467398808       -3.9278553897        2.6760846500
 H         -4.2181103405       -2.3463544997        1.8378960800
 H         -1.5626124109       -3.9186910702        1.9408879199
