  62
        -98.93476681
 C          1.9470539103        0.9285328597        0.6687742907
 C          1.8908266403        0.2622337598       -0.5786019594
 C          2.1829273099       -1.1835857603       -0.5625080394
 C          2.4114004595       -1.7957999504        0.6108500706
 C          2.7672139191       -3.2388680705        0.8411780406
 C          4.2937352390       -3.4236871110        0.8899355008
 C          4.9594865992       -3.6522960411       -0.4665036591
 H          6.0395808392       -3.6356130014       -0.3043456789
 H          4.6972449889       -4.6476594610       -0.8307222791
 C          4.6089754496       -2.6279545910       -1.5487272991
 H          4.6204843998       -1.6233721610       -1.1221196690
 H          5.3901330697       -2.6651621811       -2.3103352990
 C          3.2514656696       -2.8948159205       -2.2164894393
 H          2.9081636093       -3.8918917505       -1.9414884094
 H          3.3766707998       -2.8983078205       -3.3012080993
 C          2.1543356499       -1.8666083402       -1.9023760294
 H          2.1998892602       -1.0501116102       -2.6302346894
 H          1.1705262298       -2.3332640799       -2.0243108096
 H          4.7218132492       -2.5381231811        1.3667708909
 H          4.5218229787       -4.2800435810        1.5276975608
 H          2.3507081689       -3.5082068904        1.8142683406
 H          2.3158223190       -3.8706583004        0.0819202105
 O          2.3980084896       -1.1280230705        1.7988016907
 C          2.1566155199        0.2314332096        1.8594275207
 O          2.1546877599        0.7001776796        3.0168950307
 H         -0.6881244097        1.1760903505        1.0395667903
 C         -0.7421573993        1.9432162005        0.2789375303
 C          0.3819480409        2.7132852102        0.0046486205
 C          0.2940216314        3.6944967203       -0.9728708595
 C         -0.8867941485        3.8765863806       -1.6722979496
 C         -1.9905736188        3.0832646109       -1.4227931398
 C         -1.9148087092        2.1045107709       -0.4370073499
 N         -3.0266047895        1.2942222812       -0.1402571201
 S         -2.7593238200       -0.2944925989        0.3625528299
 O         -2.4237958902       -0.2886684191        1.7658445200
 O         -1.8273561700       -0.9627747191       -0.5181681400
 C         -4.4018232101       -0.9568851584        0.1489507697
 C         -4.7009447802       -1.6932791883       -0.9814497804
 C         -5.9924075803       -2.1684077379       -1.1497355206
 C         -6.9580579304       -1.8971313177       -0.1922129308
 C         -6.6427042303       -1.1567683878        0.9376606693
 C         -5.3532812602       -0.6803282682        1.1127302795
 H         -5.0575979402       -0.1087403183        1.9769665296
 H         -7.3950752304       -0.9495975576        1.6813709792
 H         -7.9622412405       -2.2670384974       -0.3261584609
 H         -6.2393280003       -2.7466842878       -2.0254444607
 H         -3.9153789701       -1.8835772085       -1.6952455103
 H         -3.7358171493        1.3315680614       -0.8603646402
 H         -2.9021778286        3.2129865912       -1.9860919700
 H         -0.9412017282        4.6362541807       -2.4373968996
 H          1.1564364316        4.2955329500       -1.2097681293
 C          1.6308825407        2.4097877898        0.7958268707
 H          1.3911191006        2.5542777698        1.8633492006
 C          2.7960237310        3.3364246795        0.4841441509
 C          4.2121084609        2.8749664291        0.6541553511
 C          3.6724244412        3.1480067693       -0.7159784690
 H          4.0228406215        4.0276418392       -1.2359454089
 H          3.4561211310        2.3132794394       -1.3630625591
 H          4.9285180610        3.5641878989        1.0754299112
 H          4.3690408005        1.8472845590        0.9494129111
 H          2.5885922913        4.3597034595        0.7818599809
 O          1.6266966406        0.8370908299       -1.6668460694
