  62
        -98.93980075
 C          1.3968894407        1.3067792772        0.0105571220
 C          2.4413919369        0.8882294880        0.8648823793
 C          3.0886976120       -0.3856121596        0.5217186919
 C          2.6331294414       -1.0882295567       -0.5319891097
 C          3.2281642199       -2.3681357990       -1.0466666589
 C          4.5145021234       -2.0717199443       -1.8441102990
 C          5.7902014795       -2.6291603961       -1.2124956520
 H          5.8291915288       -3.7068329737       -1.3839944725
 H          6.6372098955       -2.1803553262       -1.7354908115
 C          5.9490168997       -2.3887926718        0.2917957171
 H          6.9921876902       -2.5965779041        0.5390652652
 H          5.3480188493       -3.1125631859        0.8445972748
 C          5.5969719318       -0.9800253234        0.7865835661
 H          6.3199950534       -0.6996084991        1.5552126875
 H          5.6923857866       -0.2535652748       -0.0205286736
 C          4.1993531658       -0.8538073808        1.4216231144
 H          3.9176023025       -1.8061645138        1.8808987937
 H          4.2447554667       -0.1070119182        2.2203563658
 H          4.4216288977       -2.4850442172       -2.8494139949
 H          4.6048353831       -0.9892469037       -1.9556128673
 H          2.4793397735       -2.8373636514       -1.6853691466
 H          3.4357623708       -3.0353574442       -0.2128232669
 O          1.6080617346       -0.6669083258       -1.3138938660
 C          0.9465163989        0.5193633493       -1.0494878111
 O          0.0008244144        0.7654170284       -1.8222059630
 O          2.8085534365        1.5473230014        1.8779292092
 C          0.6581674528        2.5993225771        0.3161992179
 C         -0.8019876154        2.2817199754        0.5185147216
 C         -1.8401994033        2.9635706949       -0.1022567809
 C         -3.1507478668        2.5431083697        0.0514034620
 C         -3.4504022877        1.4235467937        0.8062796089
 C         -2.4206213493        0.7539394001        1.4525282421
 C         -1.1175115883        1.1997949648        1.3320905021
 H         -0.3215605610        0.6576396638        1.8286039376
 N         -2.7173116667       -0.4572195028        2.1484076400
 S         -2.3407678364       -1.7799928296        1.1610079752
 O         -2.7255796516       -2.9543677669        1.9166491690
 O         -0.9551482877       -1.7495831274        0.7398861823
 C         -3.4391712901       -1.5406312641       -0.2134521312
 C         -4.7338146452       -2.0102965334       -0.1019098826
 C         -5.6202263822       -1.7829092496       -1.1416897831
 C         -5.1990525802       -1.0876764337       -2.2657465734
 C         -3.8965518020       -0.6224088007       -2.3596733382
 C         -3.0015451984       -0.8473109395       -1.3245150548
 H         -1.9833405872       -0.4900010035       -1.3704017249
 H         -3.5642983745       -0.0782853519       -3.2291606503
 H         -5.8894783612       -0.9058835042       -3.0743030321
 H         -6.6336410723       -2.1439256853       -1.0718864811
 H         -5.0107256363       -2.5451321792        0.7916804055
 H         -2.1827762718       -0.5527642033        3.0028945108
 H         -4.4602496754        1.0585941836        0.8982158507
 H         -3.9445121347        3.0781573517       -0.4461558189
 H         -1.6198981905        3.8144513792       -0.7259005729
 H          1.0780690487        2.9631838473        1.2657021529
 C          0.9121870175        3.6305884494       -0.7625013245
 C          0.8493875398        5.0929261334       -0.4390714446
 C          2.1712519334        4.4410488891       -0.7085249578
 H          2.6802551642        4.6644774561       -1.6340376724
 H          2.8374165045        4.2654626494        0.1236114270
 H          0.4531618901        5.7687648491       -1.1815769226
 H          0.6204990772        5.3701183820        0.5787195279
 H          0.5689538281        3.3031853466       -1.7375147776
