  62
        -98.94124918
 C         -1.7937550697       -0.6594391693       -0.1664564108
 C         -2.9489288598       -1.1602653893        0.4904090089
 C         -4.2414447397       -0.6864725895       -0.0144745715
 C         -4.2771246095        0.1844934304       -1.0386316516
 C         -5.5161724293        0.7496397302       -1.6781299720
 C         -6.0962282696        1.9664141203       -0.9441145023
 C         -6.7866522600        1.6566853103        0.3848574276
 H         -7.3319113202        2.5557159503        0.6790853073
 H         -7.5216711999        0.8650836103        0.2353934974
 C         -5.8299629903        1.2664799305        1.5202836379
 H         -6.1021914706        1.8094352906        2.4282356578
 H         -4.8130494602        1.5698293906        1.2601068281
 C         -5.8301697103       -0.2227146094        1.8658182480
 H         -5.0931768205       -0.3914202893        2.6550070383
 H         -6.8102519604       -0.5085593195        2.2540234078
 C         -5.4831713899       -1.1442247995        0.6892104482
 H         -5.2936259899       -2.1457603895        1.0830938084
 H         -6.3190243297       -1.1949109697       -0.0082836320
 H         -5.2940524297        2.6894966504       -0.7785048821
 H         -6.8282434195        2.4297402602       -1.6097290125
 H         -6.2770655293       -0.0277070098       -1.7540868421
 H         -5.2328400891        1.0592058202       -2.6865038419
 O         -3.1507062893        0.6509017504       -1.6361326713
 C         -1.8835580794        0.2644112806       -1.2094413309
 O         -0.9610734293        0.8075008606       -1.8444812707
 O         -2.9001297000       -1.9679387492        1.4550826190
 C         -0.4464139698       -1.1200961292        0.3626283596
 C          0.4489272401        0.0618188209        0.6236598698
 C          0.2761367597        0.8170176510        1.7794179997
 C          1.0890781595        1.9036056511        2.0463335298
 C          2.0922055697        2.2622392611        1.1622562000
 C          2.2598922501        1.5242360610        0.0001417902
 C          1.4511444303        0.4277120409       -0.2609080200
 H          1.5864685506       -0.1299601791       -1.1746609499
 N          3.3097107703        1.8685711010       -0.8879114296
 S          4.8165265002        1.3883700512       -0.3312618291
 O          5.1628186398        2.1891538413        0.8148678409
 O          5.7111220805        1.4661597211       -1.4639122588
 C          4.5726824902       -0.3099368888        0.1591082910
 C          4.6860026006       -1.2999723689       -0.7963332389
 C          4.3860450906       -2.6066573489       -0.4464863288
 C          3.9655680502       -2.8961361488        0.8428366911
 C          3.8557012899       -1.8901270887        1.7906290209
 C          4.1597109899       -0.5825873787        1.4478785509
 H          4.0851820896        0.2278061514        2.1543326508
 H          3.5250662596       -2.1179654286        2.7911706209
 H          3.7206133702       -3.9121202188        1.1108742311
 H          4.4718455508       -3.3924026389       -1.1799950787
 H          5.0146243808       -1.0323479989       -1.7880074288
 H          3.1648377806        1.4983172509       -1.8173616796
 H          2.7510158596        3.0928152612        1.3578334702
 H          0.9431891692        2.4754463912        2.9502341397
 H         -0.5079399805        0.5408174710        2.4709986395
 H         -0.6854553600       -1.5861024491        1.3321075696
 C          0.2395715605       -2.1917277692       -0.4724661601
 C         -0.5576910392       -3.2950065393       -1.0988221902
 C          0.1190636210       -2.2758035593       -1.9633449001
 H          0.9891258312       -2.5803111893       -2.5269661898
 H         -0.4884204389       -1.5402418594       -2.4669750903
 H         -0.1600755891       -4.2980743193       -1.0750590400
 H         -1.6325609292       -3.2470240294       -1.0017250805
 H          1.2019505004       -2.4671260291       -0.0504885498
