  62
        -98.93831269
 C         -2.1207320295       -1.3834762110       -0.0091394163
 C         -2.4916157779       -0.3431598886       -0.8920296455
 C         -3.8454124927        0.2184918705       -0.7173251321
 C         -4.6461070502       -0.2577910351        0.2534292089
 C         -6.0699205935        0.0895064704        0.6353007639
 C         -6.7334860073        1.3604450304        0.1114282072
 C         -6.1292969914        2.6621879092        0.6372523245
 H         -6.6108469157        3.4953862576        0.1206576736
 H         -6.3648154657        2.7499878048        1.7009019777
 C         -4.6154553757        2.7949185168        0.4898403647
 H         -4.3223326776        3.7624290747        0.9067505880
 H         -4.1190146236        2.0266367879        1.0865017327
 C         -4.0883487858        2.7283971236       -0.9422559780
 H         -4.6005343537        3.4709391019       -1.5573865323
 H         -3.0273661910        2.9921779400       -0.9135485707
 C         -4.2058839913        1.3564745729       -1.6284547170
 H         -5.1957647358        1.2099402152       -2.0536446562
 H         -3.4874197367        1.3303010051       -2.4528701257
 H         -7.7754746754        1.3247498515        0.4409160467
 H         -6.7476223728        1.3585918804       -0.9745125024
 H         -6.6772411842       -0.7689069184        0.3273464059
 H         -6.0883028232        0.1018546602        1.7297307594
 O         -4.2440625274       -1.2657141330        1.0817284233
 C         -2.9911629142       -1.8384284463        0.9841752555
 O         -2.7735034958       -2.7357119274        1.8223694657
 H          0.5462432921        0.0270805664       -1.2587752907
 C          0.8438239766       -0.0988845121       -0.2296180402
 C          0.2741988786       -1.1111896640        0.5287682971
 C          0.6452054085       -1.2320983747        1.8642489094
 C          1.5542858972       -0.3544905028        2.4271793433
 C          2.1116874326        0.6617691511        1.6716063235
 C          1.7465397484        0.7909222011        0.3376691063
 N          2.2991138533        1.8229212518       -0.4362722898
 S          3.9302335216        2.1497934415       -0.2904653198
 O          4.1619195353        2.9642776885        0.8772763692
 O          4.3152854426        2.7377028938       -1.5543942056
 C          4.7139070414        0.5605453714       -0.0774949680
 C          5.4553541211        0.3059804825        1.0580317118
 C          6.0385742139       -0.9415735707        1.2128466850
 C          5.8676215316       -1.9090943951        0.2353260114
 C          5.1222130618       -1.6369920631       -0.9018070477
 C          4.5383254919       -0.3912129668       -1.0625200544
 H          3.9568381546       -0.1478738277       -1.9372043769
 H          4.9914382182       -2.3912014986       -1.6610248351
 H          6.3181407440       -2.8812891479        0.3583920500
 H          6.6203570689       -1.1549986006        2.0950555869
 H          5.5603695581        1.0863424400        1.7941684479
 H          1.9915103223        1.8278515872       -1.3971320891
 H          2.8070008073        1.3660700945        2.0988958669
 H          1.8294933735       -0.4592733691        3.4655839130
 H          0.1975776184       -2.0129257994        2.4626130491
 C         -0.7538630089       -2.0509275669       -0.0543207091
 H         -0.8293309543       -2.9188651798        0.6136823145
 C         -0.3918989597       -2.5426988652       -1.4412635053
 C          0.7126647534       -3.5433376930       -1.5929013536
 C         -0.7099762653       -3.9570914505       -1.8183232485
 H         -1.0368588913       -4.1596105978       -2.8273661582
 H         -1.1869527617       -4.5781425083       -1.0739526136
 H          1.3642557585       -3.4650053476       -2.4494670503
 H          1.2029074124       -3.8845919885       -0.6938293846
 H         -0.5051922333       -1.7924046077       -2.2123203251
 O         -1.7492743941        0.1065934827       -1.8050330196
