  62
        -98.94671831
 C         -1.9930135478       -1.4552168154       -0.0958723684
 C         -1.7166497046       -0.2175217603       -0.7226350640
 C         -2.8677959927        0.6763853173       -0.9103885124
 C         -4.0902658297        0.2660477724       -0.5261552029
 C         -5.3374882244        1.0966638886       -0.6082476858
 C         -5.5636036473        1.8880282336        0.6879685011
 C         -4.3281561755        2.6460041036        1.1742377368
 H         -4.6152304242        3.1877532476        2.0780612155
 H         -3.5586731017        1.9260257368        1.4622679579
 C         -3.7428463179        3.6307345941        0.1523762014
 H         -4.4850012144        3.8524368738       -0.6153638086
 H         -3.5140204180        4.5687117156        0.6624996632
 C         -2.4493908969        3.1584746968       -0.5144317199
 H         -1.7391119187        2.8402457598        0.2533710680
 H         -2.0102993899        4.0098844965       -1.0416433272
 C         -2.6032220687        2.0194385738       -1.5305155976
 H         -3.3814961420        2.2723893776       -2.2532439817
 H         -1.6556672917        1.9184663250       -2.0682961240
 H         -6.3830965641        2.5903163748        0.5247288966
 H         -5.8664809809        1.1892676421        1.4712920236
 H         -5.2593070031        1.7776210405       -1.4535292436
 H         -6.1858539641        0.4292649595       -0.7687258144
 O         -4.3225364387       -0.9487826055        0.0346178460
 C         -3.2821173579       -1.8293582183        0.2829003751
 O         -3.6262281059       -2.8926660515        0.8372981227
 H          1.8667099481       -2.1214455441       -0.2719334616
 C          1.5271088205       -1.6796225450        0.6492699427
 C          0.1938003241       -1.7426546805        1.0204609955
 C         -0.1928572258       -1.1528948596        2.2224232960
 C          0.7280069970       -0.5069286704        3.0232337700
 C          2.0553234218       -0.4264075607        2.6375700629
 C          2.4531374459       -1.0153590947        1.4444292603
 N          3.8000953036       -0.9717314183        1.0374027766
 S          4.2024860051       -0.3245227634       -0.4545924484
 O          3.5650406980       -1.0744813646       -1.5044056051
 O          5.6497347203       -0.3133723803       -0.4655908406
 C          3.6013298827        1.3543669447       -0.3997551239
 C          2.2594418870        1.6070597074       -0.6013448623
 C          1.8075310579        2.9138322902       -0.4937746044
 C          2.6921456015        3.9358938026       -0.1883357495
 C          4.0371711869        3.6629677305        0.0123347026
 C          4.4967900483        2.3603953403       -0.0890242042
 H          5.5336742890        2.1017359154        0.0539160862
 H          4.7254215137        4.4586769716        0.2482773484
 H          2.3309595701        4.9491389417       -0.1075548424
 H          0.7594295162        3.1142437335       -0.6505462440
 H          1.5789141660        0.8047362472       -0.8388047487
 H          4.4214806238       -0.5905290066        1.7374862132
 H          2.7768921041        0.0840250886        3.2575009099
 H          0.4110072119       -0.0556520181        3.9513337254
 H         -1.2323562407       -1.2096779759        2.5174897966
 C         -0.8591366865       -2.4262001172        0.1821294414
 H         -1.2946914702       -3.2426013444        0.7766830181
 C         -0.3270734211       -3.0014003151       -1.1133397217
 C          0.3215063532       -4.3517998401       -1.1237422496
 C         -1.0339997173       -4.1661334219       -1.7353887353
 H         -1.1252325257       -4.1999089414       -2.8107544463
 H         -1.8920518214       -4.5622233496       -1.2114734102
 H          1.1651185172       -4.5112324341       -1.7786231306
 H          0.3857802984       -4.8827991978       -0.1858705797
 H          0.0677677982       -2.2442329147       -1.7817507366
 O         -0.5680004802        0.1289415750       -1.1013821959
