  62
        -98.94472367
 C          2.0028988792        1.3684069151        0.3066060036
 C          2.6526190582        0.7698088762       -0.7999733161
 C          3.8057579293       -0.0839308258       -0.4779953208
 C          4.1733868793       -0.2417950314        0.8066209956
 C          5.2892292899       -1.1282524662        1.2772019844
 C          4.7773474201       -2.5389255967        1.6012276798
 C          3.9065873689       -3.1481529309        0.5019871465
 H          3.6269176507       -4.1527245084        0.8272798763
 H          2.9824974802       -2.5713021861        0.4153780283
 C          4.5830033685       -3.2260642468       -0.8738880216
 H          5.6635074527       -3.1300380247       -0.7609855589
 H          4.3880357079       -4.2107280864       -1.3040050368
 C          4.0850983616       -2.1917700640       -1.8854088387
 H          4.4626467572       -2.4729943420       -2.8720950612
 H          2.9931709325       -2.2212204536       -1.9337086207
 C          4.5174077311       -0.7430540084       -1.6255428510
 H          4.2610097763       -0.1570306812       -2.5129250477
 H          5.5994428612       -0.7010632228       -1.4857224923
 H          5.6374987979       -3.1850479373        1.7852754276
 H          4.1862683327       -2.4910899399        2.5189120312
 H          5.7187286781       -0.6913784913        2.1803006640
 H          6.0572997451       -1.1767814169        0.5079743054
 O          3.5264942745        0.3535296506        1.8415111349
 C          2.4184649120        1.1560775141        1.6202645478
 O          1.8945809111        1.6091600800        2.6589259098
 O          2.2896097817        0.9354075432       -1.9929664352
 C          0.7875156409        2.2502491225        0.0824872036
 C         -0.2997645938        1.4600756676       -0.6057001625
 C         -1.0189731550        1.9317508317       -1.6953199038
 C         -1.9999192970        1.1486037609       -2.2804938578
 C         -2.2922717104       -0.1097300939       -1.7892603797
 C         -1.5938207864       -0.5821236068       -0.6844588606
 C         -0.6143988215        0.2044723717       -0.0990444807
 H         -0.0700000916       -0.1664353780        0.7613353760
 N         -1.8975563535       -1.8509129963       -0.1624617057
 S         -3.5119689021       -2.2559095360        0.0159685352
 O         -3.5459811280       -3.2030514837        1.1083394430
 O         -4.0347933537       -2.7293223540       -1.2414113201
 C         -4.3304815744       -0.7382785992        0.4750809826
 C         -5.3268503382       -0.2222490994       -0.3281097727
 C         -5.9284259092        0.9724770615        0.0339986075
 C         -5.5217540571        1.6291279754        1.1848516438
 C         -4.5213672618        1.0960683295        1.9835559302
 C         -3.9184651367       -0.0992384732        1.6278055871
 H         -3.1408291061       -0.5404998161        2.2310177635
 H         -4.2052262934        1.6075037775        2.8786901597
 H         -5.9861277450        2.5617946689        1.4635629344
 H         -6.7079216260        1.3883189945       -0.5836951808
 H         -5.6092579477       -0.7641716414       -1.2159284597
 H         -1.3643050607       -2.0975285349        0.6578970631
 H         -3.0391621611       -0.7384905026       -2.2460709716
 H         -2.5415372635        1.5226638806       -3.1356149653
 H         -0.8046222882        2.9087148828       -2.0954066761
 H          0.4243842668        2.5260873806        1.0834511426
 C          1.1825085035        3.5119823879       -0.6557357608
 C          0.4143309428        4.7810357878       -0.4447702233
 C          1.7950174502        4.6381890825        0.1195606215
 H          2.6003538702        5.1975452558       -0.3323606885
 H          1.9036917904        4.5036796523        1.1862545480
 H          0.2729425903        5.4443064390       -1.2846729014
 H         -0.4176475504        4.7538469322        0.2423544254
 H          1.5815921024        3.3090560367       -1.6426803655
