  62
        -98.93221934
 C         -2.1922540222       -0.7028998402       -0.4151094980
 C         -3.3261060590       -0.8958343788        0.4181543374
 C         -4.1716813436        0.2793189344        0.6691085039
 C         -3.8269139330        1.4584368861        0.1213147188
 C         -4.6187360265        2.7316245286        0.2140202838
 C         -5.8190015667        2.6770347409       -0.7526789981
 C         -7.1834389268        2.6720014597       -0.0631989107
 H         -7.4046926772        3.6802419559        0.2931825336
 H         -7.9305507991        2.4181892708       -0.8182414551
 C         -7.3281853875        1.7140533950        1.1232494883
 H         -8.3964789240        1.6262381365        1.3323380282
 H         -6.8734619589        2.1569094061        2.0106079217
 C         -6.7482315845        0.3075432044        0.9251874585
 H         -6.6994122612        0.0567712000       -0.1346827888
 H         -7.4287569357       -0.4088293956        1.3898953292
 C         -5.3642909002        0.0887604546        1.5648526086
 H         -5.2639548043        0.7278828497        2.4465655232
 H         -5.2959815389       -0.9493148040        1.9033138358
 H         -5.7811153463        3.5325998755       -1.4286223490
 H         -5.7195037630        1.7831313474       -1.3719802045
 H         -4.9571082975        2.8799497406        1.2370923195
 H         -3.9506634832        3.5497781655       -0.0555260826
 O         -2.7301138173        1.6088359818       -0.6621469047
 C         -1.8860072049        0.5469462200       -0.9520094350
 O         -0.9281894446        0.8677741092       -1.6847607435
 H          0.7527865124       -0.1901409853       -0.7112191261
 C          0.8888298679       -0.9631324497        0.0307129676
 C         -0.0944620944       -1.9293732043        0.1896306011
 C          0.0874443546       -2.9088694804        1.1587461082
 C          1.2247829017       -2.9167448852        1.9475096818
 C          2.1986185791       -1.9469853604        1.7922761847
 C          2.0233667803       -0.9598886949        0.8306061633
 N          2.9844106564        0.0609718677        0.6833449906
 S          4.6010803680       -0.4126985786        0.5617862309
 O          4.7507119520       -1.4326531975       -0.4531940354
 O          5.0724344355       -0.7652048425        1.8777249888
 C          5.3606373063        1.1094364213        0.0349811968
 C          5.6285052876        2.0783619907        0.9831264361
 C          6.1931257697        3.2760227482        0.5746610600
 C          6.4778497337        3.4837625756       -0.7669248853
 C          6.2044115685        2.5011433057       -1.7063794397
 C          5.6380257280        1.3014949014       -1.3047911470
 H          5.4148427691        0.5073431801       -1.9993229449
 H          6.4289406853        2.6645158132       -2.7481470429
 H          6.9181296548        4.4164426160       -1.0824679756
 H          6.4091138467        4.0422047680        1.3016895978
 H          5.3981538275        1.8694205581        2.0146817439
 H          2.7441435949        0.6778960527       -0.0819131025
 H          3.0909485575       -1.9447052541        2.3969613201
 H          1.3547361806       -3.6857039271        2.6942327833
 H         -0.6750393682       -3.6615450932        1.2983458219
 C         -1.3296575330       -1.9258383423       -0.6805385632
 H         -1.9488102927       -2.7809736232       -0.3779964106
 C         -0.9628070221       -2.0956735217       -2.1422411306
 C         -0.5481981558       -3.4489348702       -2.6334364800
 C         -1.8714425417       -2.8759159029       -3.0419439834
 H         -1.9987996559       -2.5412335112       -4.0604629702
 H         -2.7655169355       -3.2972258908       -2.6058770402
 H         -0.5446903070       -4.2594483524       -1.9203457735
 H          0.2377224875       -3.5105497989       -3.3704927314
 H         -0.4670270058       -1.2325462531       -2.5667243993
 O         -3.6199634965       -2.0109311527        0.9265348843
