  62
        -98.93365475
 C         -2.1404795117       -0.9373465315        0.5616487446
 C         -2.3962430208       -0.1240740939       -0.5667836406
 C         -3.4444146253        0.9095583554       -0.4177059665
 C         -4.0363993923        1.0709781863        0.7795249726
 C         -5.1498361447        2.0126688997        1.1534545726
 C         -6.5198959789        1.5378728965        0.6423219357
 C         -6.5273159266        1.0258315884       -0.7957263544
 H         -5.8201019406        0.1993094625       -0.8858556443
 H         -7.5230685707        0.6230897038       -0.9989893529
 C         -6.2208596929        2.0747799359       -1.8620543319
 H         -6.3476768413        1.5936929159       -2.8351874562
 H         -6.9546866250        2.8808016603       -1.7923609032
 C         -4.8196942640        2.6883799378       -1.8155307120
 H         -4.6656234420        3.2182755030       -2.7600295164
 H         -4.7435584612        3.4341567847       -1.0287614124
 C         -3.6838038849        1.6770111482       -1.6958057559
 H         -3.7908040818        0.9242389545       -2.4850825476
 H         -2.7372378762        2.1867677100       -1.9131342022
 H         -7.2289864867        2.3612708166        0.7423394510
 H         -6.8564969087        0.7226538524        1.2877068134
 H         -5.1782524744        2.0464193859        2.2449665634
 H         -4.9288140371        3.0144970356        0.7975441911
 O         -3.6952179552        0.3167187505        1.8650881446
 C         -2.7554621392       -0.6914642537        1.7904720489
 O         -2.5450422369       -1.2805281837        2.8708580439
 H          0.3146122177        0.0474592625        1.2395734425
 C          0.7775633681       -0.4621522631        0.4012575182
 C          0.1572879753       -1.5878873263       -0.1291179638
 C          0.7649531459       -2.2323878825       -1.1979377706
 C          1.9543077018       -1.7550511702       -1.7212655315
 C          2.5638060376       -0.6325940623       -1.1923737128
 C          1.9642543784        0.0203983048       -0.1234035186
 N          2.5937111472        1.1649023625        0.4243908183
 S          3.9716777139        0.8255780884        1.3348112733
 O          3.8377001441       -0.4316348804        2.0378430815
 O          4.1886524273        1.9966535580        2.1563748834
 C          5.2642368957        0.7044779688        0.1186862720
 C          5.8674067446       -0.5150338904       -0.1182241246
 C          6.8680556616       -0.5917761872       -1.0743771110
 C          7.2449878495        0.5458411339       -1.7718919559
 C          6.6302702790        1.7636370141       -1.5200871790
 C          5.6294021639        1.8476621273       -0.5653016046
 H          5.1289961093        2.7730782276       -0.3334730634
 H          6.9270651757        2.6458895459       -2.0640160262
 H          8.0231803144        0.4830602265       -2.5160994147
 H          7.3471338579       -1.5372214085       -1.2716406154
 H          5.5372202548       -1.3720241617        0.4463216747
 H          1.9663699244        1.7180388236        0.9923502206
 H          3.4832891060       -0.2507062512       -1.6049467179
 H          2.4101219593       -2.2628006569       -2.5573862812
 H          0.2977831272       -3.0991130558       -1.6354192582
 C         -1.1187911283       -2.0598753113        0.5245474897
 H         -0.8858130317       -2.2618457810        1.5842536519
 C         -1.6495784559       -3.3632706876       -0.0550802899
 C         -3.1143549766       -3.6812198847       -0.0311101683
 C         -2.4275131484       -3.4124955231       -1.3345422130
 H         -2.2602961470       -4.2438184913       -2.0037051680
 H         -2.6178852086       -2.4776014549       -1.8365642237
 H         -3.4143899765       -4.6929987561        0.1971281792
 H         -3.7837937101       -2.9296298625        0.3622916510
 H         -0.9785302025       -4.1939503906        0.1410655546
 O         -1.7948391606       -0.2444141244       -1.6649135214
