  62
        -98.94794787
 C          0.7945231838        1.1950433681        0.0479845545
 C          1.4681339284        0.5167336927        1.0911770372
 C          2.3969537900       -0.5381937696        0.6695515942
 C          2.5238969017       -0.8324140550       -0.6370620727
 C          3.4701733997       -1.8407484775       -1.2309692722
 C          4.8950985455       -1.3056145917       -1.4335169660
 C          5.7188781199       -1.1391203823       -0.1558912959
 H          5.6884834065       -2.0649742836        0.4193855195
 H          6.7549316449       -0.9803246780       -0.4616011501
 C          5.2838764056        0.0348938377        0.7323258038
 H          6.1654591562        0.5927781421        1.0562123509
 H          4.6656062526        0.7233557543        0.1516397949
 C          4.5186006227       -0.3714530647        1.9918614668
 H          4.2285095009        0.5376656402        2.5248444002
 H          5.1715004431       -0.9516383821        2.6478972977
 C          3.2470982219       -1.1863322895        1.7202179960
 H          2.6624382142       -1.2277675984        2.6428743458
 H          3.5090247826       -2.2025424500        1.4265132232
 H          4.8384676361       -0.3486347098       -1.9570618702
 H          5.4173020953       -2.0101195737       -2.0849549509
 H          3.5053944911       -2.7340786345       -0.6077487893
 H          3.0662359136       -2.1083268076       -2.2086071501
 O          1.7797175832       -0.2265983730       -1.5987196920
 C          0.9151567233        0.8124973284       -1.2879401404
 O          0.3271513988        1.2999449087       -2.2706501014
 O          1.3167653953        0.7921842568        2.3122931092
 C         -0.0783632246        2.3895240181        0.3893381844
 C         -1.4861576312        2.1718713401       -0.1011908044
 C         -2.1382301445        3.0280677168       -0.9783347376
 C         -3.4274504320        2.7494593459       -1.3973455767
 C         -4.0900606244        1.6214947959       -0.9516117878
 C         -3.4509522755        0.7661952624       -0.0595043584
 C         -2.1608224578        1.0471635910        0.3594014353
 H         -1.6721296324        0.3869610110        1.0619436418
 N         -4.1097346717       -0.3696966151        0.4265016703
 S         -3.2937497175       -1.6701994899        1.0559479293
 O         -4.2661790454       -2.7432115334        1.0226676087
 O         -2.7676315008       -1.3518633466        2.3600569908
 C         -1.9619137510       -2.0720499743       -0.0613795817
 C         -2.1355631911       -1.9420056791       -1.4243829957
 C         -1.1210444657       -2.3581481416       -2.2711143887
 C          0.0350689596       -2.9118618971       -1.7457532982
 C          0.1970762527       -3.0313680550       -0.3747457280
 C         -0.8073352428       -2.6025534812        0.4767237114
 H         -0.7152078145       -2.6645836192        1.5497285376
 H          1.0976488304       -3.4574176318        0.0364904636
 H          0.8150035836       -3.2500625238       -2.4090487047
 H         -1.2359202976       -2.2498494128       -3.3375397875
 H         -3.0461667751       -1.5180416102       -1.8150399375
 H         -4.9707338511       -0.6203221916       -0.0345013955
 H         -5.0935377796        1.4024384577       -1.2824318846
 H         -3.9210826769        3.4181224314       -2.0859491160
 H         -1.6358375348        3.9083729790       -1.3426280056
 H         -0.1042444207        2.4273975585        1.4886121225
 C          0.5623053370        3.6614164935       -0.1274189758
 C          0.2624188966        4.9750028811        0.5285686830
 C          1.6067327673        4.3375021586        0.7071440425
 H          2.4585654829        4.7783371449        0.2111709394
 H          1.8415872401        3.8929218090        1.6634294837
 H          0.1930082054        5.8574456385       -0.0891994525
 H         -0.4165824612        4.9693216105        1.3677560550
 H          0.7158924940        3.6464027335       -1.2007747524
