  62
        -98.93840504
 C         -1.7777477512       -1.3623559575        0.1758019019
 C         -1.9991029228       -0.3208445176       -0.7547194209
 C         -3.3588181611        0.2517377209       -0.7960831809
 C         -4.3013757232       -0.1984781275        0.0516886233
 C         -5.7604424578        0.1729129036        0.2140045607
 C         -6.3200859117        1.4461288912       -0.4154469643
 C         -5.7775355490        2.7464189695        0.1766979359
 H         -6.1713985554        3.5789946690       -0.4104671160
 H         -6.1576497262        2.8499031469        1.1961884088
 C         -4.2562772001        2.8593952419        0.2395210035
 H         -3.8586542789        2.0967496466        0.9126590784
 H         -4.0112482189        3.8313110877        0.6768260301
 C         -3.5373264209        2.7599744090       -1.1045543425
 H         -2.4888515849        3.0209143754       -0.9354367017
 H         -3.9544893019        3.4916547587       -1.7992738595
 C         -3.5690811298        1.3739477752       -1.7720258971
 H         -4.4888774872        1.2258681953       -2.3323844632
 H         -2.7398059616        1.3241881618       -2.4834122164
 H         -6.1770974541        1.4298176062       -1.4919238427
 H         -7.3992567540        1.4301989321       -0.2401382406
 H         -6.3288880393       -0.6809814481       -0.1711680825
 H         -5.9402191679        0.1992928153        1.2935348634
 O         -4.0388383200       -1.1963027265        0.9448595771
 C         -2.7984349346       -1.7974848926        1.0265389100
 O         -2.7263328306       -2.6999890352        1.8842419348
 O         -1.1199689770        0.1346726550       -1.5356866434
 C         -0.4530156829       -2.0933781013        0.3309129330
 C          0.5440135711       -1.3070093956        1.1470461115
 C          1.1437496892       -1.8578193608        2.2731953182
 C          2.0914215432       -1.1462608263        2.9892770647
 C          2.4576898296        0.1301000471        2.5999536520
 C          1.8558339053        0.6907032228        1.4819299126
 C          0.9150782958       -0.0273238657        0.7600097975
 H          0.4621922185        0.4121078997       -0.1164003693
 N          2.2353045750        1.9887780549        1.0631017065
 S          3.7838630736        2.0662345729        0.4229221373
 O          4.7352225482        1.8580112155        1.4846879239
 O          3.8653047853        3.3317073208       -0.2705176467
 C          3.8471691475        0.7116025580       -0.7348456255
 C          3.3416113618        0.9069444854       -2.0043331392
 C          3.3094469059       -0.1620544712       -2.8845474599
 C          3.7711510367       -1.4038073440       -2.4765191677
 C          4.2684729896       -1.5856603956       -1.1953805254
 C          4.3059983461       -0.5193894845       -0.3117837912
 H          4.6858340382       -0.6177506997        0.6918546198
 H          4.6216445019       -2.5540714505       -0.8797073897
 H          3.7438005250       -2.2341169073       -3.1649838329
 H          2.9178297493       -0.0251176170       -3.8798492996
 H          2.9937033682        1.8887040146       -2.2841613834
 H          1.5899666037        2.3728194709        0.3857159076
 H          3.2050150257        0.6944877931        3.1338689062
 H          2.5489919921       -1.5893809628        3.8606587794
 H          0.8567589564       -2.8491909585        2.5919492889
 H         -0.6908994382       -3.0109887965        0.8851087007
 C          0.1685389105       -2.4841252840       -0.9977091429
 C          1.0793671251       -3.6714105600       -1.0513208075
 C         -0.2823892599       -3.7422862359       -1.6732946222
 H         -0.3624541355       -3.7478072648       -2.7497938550
 H         -1.0417525828       -4.3300694541       -1.1775808331
 H          1.9387500715       -3.6287430365       -1.7010994073
 H          1.2450365239       -4.2171216924       -0.1349858258
 H          0.4051757512       -1.6362360403       -1.6268688019
