  62
        -98.94672956
 C          1.5461100564        1.5128332780       -0.0044230111
 C          2.3881183416        0.9308072828        0.9721058617
 C          3.1256790457       -0.2643240606        0.5494323677
 C          2.9690657556       -0.7384592405       -0.7005584059
 C          3.7155420842       -1.8986055120       -1.3027739530
 C          3.1174452265       -3.2763357383       -0.9903899636
 C          3.2881536677       -3.7512831291        0.4523970816
 H          3.0092672704       -4.8064162568        0.4794356839
 H          4.3389702412       -3.6869567113        0.7364201680
 C          2.4297813924       -2.9860313105        1.4693280109
 H          1.9354569398       -3.6942205197        2.1381286043
 H          1.6425786301       -2.4398284614        0.9433945458
 C          3.2153805495       -2.0088508091        2.3443367942
 H          3.9166787219       -2.5623402894        2.9729104148
 H          2.5120699744       -1.4921994211        3.0030151016
 C          3.9977420367       -0.9476512057        1.5589911167
 H          4.3496319182       -0.1894676297        2.2631105210
 H          4.8620404700       -1.4008579880        1.0738324640
 H          3.6047531778       -3.9990067005       -1.6487967172
 H          2.0557401788       -3.2553097248       -1.2377693801
 H          4.7548926998       -1.8685684591       -0.9733549448
 H          3.6915655342       -1.7518465251       -2.3846728053
 O          2.1187155219       -0.1726325301       -1.5968806244
 C          1.3766280163        0.9543732704       -1.2719375246
 O          0.6267779677        1.3546239374       -2.1800266578
 O          2.5226394892        1.3932637913        2.1380250153
 C          0.7754126566        2.7726469450        0.3473638264
 C         -0.7069327931        2.5073909185        0.2676239705
 C         -1.5938006801        3.2968044697       -0.4511140764
 C         -2.9413207690        2.9786180215       -0.4932369294
 C         -3.4338760471        1.8781393735        0.1830897015
 C         -2.5545095089        1.0837904304        0.9096118284
 C         -1.2068063134        1.4031046568        0.9489059523
 H         -0.5233850960        0.7827235716        1.5160701278
 N         -3.0455862525       -0.0429395890        1.6044969147
 S         -3.7200336781       -1.2763131637        0.6957918369
 O         -4.8645481779       -0.7612904520       -0.0104698160
 O         -3.9721393898       -2.3485407862        1.6309421684
 C         -2.4572316920       -1.7712718450       -0.4628157015
 C         -1.7534783399       -2.9351839652       -0.2255541653
 C         -0.7605108178       -3.3111153646       -1.1153641413
 C         -0.4775064863       -2.5097754963       -2.2115472976
 C         -1.1832838750       -1.3367072155       -2.4286104268
 C         -2.1874777924       -0.9633754641       -1.5498557086
 H         -2.7576818446       -0.0611110963       -1.6991081257
 H         -0.9436044285       -0.6992958269       -3.2642775250
 H          0.2978136406       -2.7954778056       -2.9056785666
 H         -0.2130491999       -4.2258151188       -0.9494339766
 H         -2.0054276846       -3.5269114975        0.6399335354
 H         -2.3697554474       -0.4385939079        2.2432867540
 H         -4.4767706484        1.6086384310        0.1452460328
 H         -3.6182913352        3.5984108921       -1.0614925457
 H         -1.2312530783        4.1585276421       -0.9864890042
 H          1.0265144074        2.9839185081        1.3976510176
 C          1.2368177850        3.9351321948       -0.5054210169
 C          1.1125275757        5.3386530961        0.0053367753
 C          2.4614126586        4.6937443717       -0.0933892274
 H          3.1417582437        5.0313922363       -0.8607024188
 H          2.9518168344        4.3875063346        0.8192345967
 H          0.8686219037        6.1235484359       -0.6945516362
 H          0.6879614017        5.4770923927        0.9881756070
 H          1.0916960340        3.7594956368       -1.5652739946
