  62
        -98.94436405
 C          2.3638870769        1.1238159395        0.2302884004
 C          2.3990770994       -0.1630942837       -0.3594613293
 C          3.4207865965       -1.0774022653        0.1685204580
 C          4.2184150370       -0.6850970927        1.1780045180
 C          5.2880117364       -1.5123362166        1.8378855754
 C          6.6321676875       -1.5015928308        1.0969103464
 C          6.6630231324       -2.2998517880       -0.2070056428
 H          7.7100297031       -2.3884332053       -0.5035206349
 H          6.2903310291       -3.3080612033       -0.0234204046
 C          5.8766284121       -1.6604131825       -1.3598346157
 H          6.4789042791       -1.6875867290       -2.2706892961
 H          5.6869848832       -0.6089191391       -1.1325027087
 C          4.5467558263       -2.3448026989       -1.6766989379
 H          4.7323014643       -3.3603515777       -2.0336535930
 H          4.0581755228       -1.7895066171       -2.4814474776
 C          3.5742942111       -2.4144482225       -0.4917696717
 H          2.5925424948       -2.7141794650       -0.8677368272
 H          3.9122525144       -3.1587479558        0.2291081509
 H          7.3796071024       -1.9226783295        1.7731546597
 H          6.9118277752       -0.4648868480        0.8962355796
 H          4.9399388923       -2.5396672032        1.9493792229
 H          5.4395723418       -1.0867160802        2.8321622737
 O          4.1243902345        0.5463640318        1.7459278606
 C          3.2115971871        1.4780676392        1.2829670066
 O          3.2484708062        2.5712955328        1.8821194649
 O          1.6299929393       -0.5407327565       -1.2827128449
 C          1.3655248692        2.1770804988       -0.2255482091
 C         -0.0147840018        1.7255281526        0.1851602287
 C         -0.4276318579        1.9262335406        1.4997498298
 C         -1.6602774557        1.4722061526        1.9282865082
 C         -2.5042172215        0.8016112450        1.0591527657
 C         -2.0933337609        0.5796649349       -0.2475529068
 C         -0.8620463078        1.0552642540       -0.6819979067
 H         -0.5506060973        0.8648577270       -1.6965461847
 N         -2.9364580792       -0.1028955482       -1.1391263759
 S         -3.7447115889       -1.4742523697       -0.6124860442
 O         -3.0153905695       -2.1713439688        0.4215414638
 O         -4.0326854726       -2.2253392040       -1.8151137807
 C         -5.2717325885       -0.8302076223        0.0423790816
 C         -5.6877519464       -1.1945602259        1.3078968478
 C         -6.8831443542       -0.6870253120        1.7931514726
 C         -7.6383319905        0.1702075367        1.0077909712
 C         -7.2087043490        0.5233903405       -0.2628010891
 C         -6.0153359243        0.0187862765       -0.7538976765
 H         -5.6479561774        0.2670644505       -1.7354827209
 H         -7.7987016340        1.1900682737       -0.8709011796
 H         -8.5669228709        0.5653664874        1.3883938738
 H         -7.2187040975       -0.9614993017        2.7803686835
 H         -5.0648558646       -1.8591326731        1.8856356227
 H         -2.5219664661       -0.2563331669       -2.0472174621
 H         -3.4616489009        0.4347608360        1.3907310630
 H         -1.9687341743        1.6385606567        2.9492939987
 H          0.2404424456        2.4318862687        2.1834571290
 H          1.6075473323        3.0849315131        0.3427242157
 C          1.5014636087        2.4782887611       -1.7033429583
 C          0.8696984902        3.7176529538       -2.2598534325
 C          2.3604496249        3.6256884260       -2.1384120751
 H          2.9468725104        3.5169531805       -3.0385590333
 H          2.8485163782        4.2045213257       -1.3678123929
 H          0.4309289353        3.6760460757       -3.2450368061
 H          0.3439238213        4.3598715553       -1.5697343905
 H          1.5147320677        1.5914062425       -2.3244594860
