  62
        -98.93982968
 C         -2.7063431120       -0.7372275929        0.3069857587
 C         -2.7141731325        0.3593254668        1.2023185124
 C         -3.2675744775        1.6120362973        0.6780869035
 C         -3.7336155608        1.6582199155       -0.5834699091
 C         -4.3444148426        2.8570612575       -1.2570510145
 C         -3.3159329076        3.8183697688       -1.8688112618
 C         -2.5191860635        4.6466920528       -0.8600165116
 H         -1.9977018996        5.4224119725       -1.4240945459
 H         -3.2078359798        5.1470786022       -0.1785452609
 C         -1.4870479574        3.8442725026       -0.0551798089
 H         -1.2977160962        2.8908424591       -0.5546068074
 H         -0.5397832744        4.3877692459       -0.0340812348
 C         -1.8875821975        3.5746159857        1.3955765565
 H         -1.1041272592        2.9716793752        1.8620927001
 H         -1.9526810919        4.5195456015        1.9393177008
 C         -3.2178898197        2.8265059948        1.5556342579
 H         -3.3010570693        2.4919898967        2.5925961552
 H         -4.0525735998        3.4909501108        1.3343557545
 H         -2.6281983204        3.2423240280       -2.4924069013
 H         -3.8600181723        4.5050237325       -2.5213626491
 H         -4.9767238582        2.4731496214       -2.0604060499
 H         -4.9726050980        3.3964208726       -0.5476968585
 O         -3.7129900771        0.5807665297       -1.4116098663
 C         -3.1711314767       -0.6306327058       -1.0042234590
 O         -3.1720874985       -1.5107151837       -1.8847463441
 O         -2.2730291030        0.2954629471        2.3822254546
 C         -2.1048855732       -2.0517111490        0.7731265128
 C         -0.8268170636       -2.3059284201        0.0103388255
 C         -0.5915551734       -3.4436677888       -0.7482250673
 C          0.6036679685       -3.5915773677       -1.4322395377
 C          1.5833469793       -2.6183326539       -1.3747277244
 C          1.3630349674       -1.4798393549       -0.6086788016
 C          0.1685023012       -1.3375326791        0.0803989789
 H         -0.0053113186       -0.4530971783        0.6811619873
 N          2.3426976545       -0.4695336765       -0.5520566470
 S          3.9469448355       -0.9635448251       -0.3527488850
 O          4.4615339281       -1.3668010651       -1.6374692688
 O          4.0372462151       -1.9504355888        0.7001562079
 C          4.7151623997        0.5621048760        0.1519376217
 C          4.9953861006        1.5116106190       -0.8125287281
 C          5.5726692204        2.7097960023       -0.4236864969
 C          5.8585254887        2.9371012128        0.9145942484
 C          5.5726114800        1.9739711476        1.8704048181
 C          4.9930738781        0.7739764154        1.4887339850
 H          4.7597786103       -0.0058068916        2.1960502294
 H          5.7985304143        2.1521628348        2.9094323824
 H          6.3095791939        3.8698022012        1.2144700053
 H          5.7983552311        3.4606289714       -1.1636300570
 H          4.7649941368        1.2872598276       -1.8408921023
 H          2.1036388586        0.2467072443        0.1205875294
 H          2.5165164686       -2.7265023309       -1.9036380516
 H          0.7737368443       -4.4792277431       -2.0230170704
 H         -1.3439643207       -4.2121088944       -0.8117577330
 H         -1.8390435024       -1.8899645373        1.8284189303
 C         -3.1082357529       -3.1806932421        0.6935798562
 C         -2.9365964242       -4.3919729669        1.5593106071
 C         -4.0327412424       -3.4125887878        1.8496418571
 H         -5.0523085881       -3.7016491979        1.6435884253
 H         -3.9278572571       -2.7660502474        2.7087194275
 H         -3.2046137645       -5.3567803882        1.1561991847
 H         -2.0856997898       -4.4135569505        2.2234637678
 H         -3.5120637469       -3.3155522860       -0.3029552283
