  62
        -98.93370471
 C          2.4426200803        1.1554135718       -0.0590229878
 C          2.4296798097       -0.2397201591        0.1721033702
 C          3.7226529792       -0.8517826836        0.5278971279
 C          4.8150893676       -0.0757415688        0.6333808318
 C          6.2165631681       -0.4736356248        1.0246870466
 C          6.7804407988       -1.7684325445        0.4239012598
 C          6.2938032918       -2.0909660946       -0.9963211291
 H          5.7777674511       -1.2281536581       -1.4209256184
 H          7.1584925021       -2.2978078299       -1.6295354527
 C          5.3720183857       -3.3117217417       -1.0483589748
 H          5.3630616340       -3.7025553708       -2.0687061585
 H          5.7849466670       -4.0906274935       -0.4037334757
 C          3.9188613461       -3.0540235343       -0.6511686722
 H          3.4014899676       -4.0161861806       -0.6205727464
 H          3.4248142207       -2.4517247097       -1.4188430825
 C          3.7161437707       -2.3437723927        0.6974461036
 H          2.7182317671       -2.5996209807        1.0648542629
 H          4.4504167028       -2.6706322939        1.4298132582
 H          6.5446546095       -2.6066995681        1.0778920708
 H          7.8669945943       -1.6673056180        0.4219856063
 H          6.2586432764       -0.5379998366        2.1158146224
 H          6.8432523654        0.3706649669        0.7278854214
 O          4.7754565490        1.2702425369        0.4181171539
 C          3.6043468559        1.9153905309        0.0628665268
 O          3.7237175958        3.1457956878       -0.1062893469
 O          1.3888027293       -0.9449342988        0.0963297237
 C          1.1641754583        1.8711576786       -0.4548122194
 C          0.0960528276        1.6384778613        0.5859138993
 C          0.4006612958        1.8807902187        1.9232737180
 C         -0.5429645087        1.6746079992        2.9099699316
 C         -1.8084127345        1.2185874510        2.5842889768
 C         -2.1283268692        0.9878820556        1.2520930671
 C         -1.1810430428        1.2098536596        0.2611342847
 H         -1.4512137238        1.0178288091       -0.7626846915
 N         -3.4280716433        0.5748321768        0.8981679411
 S         -3.6493059893       -0.6497130115       -0.2443027383
 O         -3.0525940372       -1.8843653950        0.2169322691
 O         -3.2367660002       -0.1762567535       -1.5399630540
 C         -5.4282001655       -0.7776507530       -0.1980881830
 C         -6.1705120116        0.2107941566       -0.8162439552
 C         -7.5533650892        0.1369216551       -0.7721708105
 C         -8.1682233565       -0.9187195826       -0.1149654288
 C         -7.4103691286       -1.9040793680        0.4991829639
 C         -6.0263043177       -1.8348265221        0.4603006615
 H         -5.3965854210       -2.5816465278        0.9167464506
 H         -7.8910665794       -2.7249226119        1.0066295787
 H         -9.2448494632       -0.9748922854       -0.0834323903
 H         -8.1460045198        0.9002545480       -1.2500134200
 H         -5.6491508662        1.0062913927       -1.3223286779
 H         -3.9849829542        0.3604912320        1.7159764362
 H         -2.5426050136        1.0451232220        3.3568578973
 H         -0.2900656046        1.8608138395        3.9431414030
 H          1.3946574169        2.2250886777        2.1771669315
 H          1.4065633939        2.9443773922       -0.4627338088
 C          0.7481564276        1.4568106248       -1.8507120404
 C         -0.0314541080        2.3983354677       -2.7167470816
 C          1.4046821721        2.1068503718       -3.0298778476
 H          1.6338440896        1.4991752190       -3.8925021941
 H          2.1394358834        2.8725124177       -2.8260817609
 H         -0.7947857971        1.9879243800       -3.3607252456
 H         -0.2732067926        3.3675513718       -2.3073553377
 H          0.5260168834        0.3972528980       -1.9231955854
