  62
        -98.93905465
 C         -2.3223547760       -0.8390530891        0.6354878770
 C         -3.4273903979       -0.9572244789       -0.2431751322
 C         -4.5727657567       -0.0786375102        0.0426220739
 C         -4.5252039479        0.7568365205        1.0949312631
 C         -5.5952249998        1.7435871036        1.4601875058
 C         -5.3458441889        3.1049435116        0.7959133734
 C         -5.0546357090        3.0174049038       -0.7023247540
 H         -4.9264749347        4.0384127203       -1.0683703369
 H         -4.1027691025        2.5018292719       -0.8506260936
 C         -6.1457549214        2.3135535897       -1.5212163018
 H         -7.0742516497        2.2812054665       -0.9501086536
 H         -6.3393295156        2.8994192210       -2.4221753712
 C         -5.7828030262        0.8996352888       -1.9786661572
 H         -4.8058464879        0.9125231523       -2.4683627611
 H         -6.5185375892        0.5840185123       -2.7231111092
 C         -5.7561522725       -0.1701526250       -0.8797921322
 H         -6.6888795245       -0.1404062725       -0.3133574865
 H         -5.6804099999       -1.1459562484       -1.3679662796
 H         -6.2211248266        3.7354526885        0.9625191307
 H         -4.4892587443        3.5759617732        1.2838199927
 H         -6.5633029906        1.3506686362        1.1557886885
 H         -5.5889403696        1.8711783256        2.5439843666
 O         -3.4573295262        0.8283973208        1.9306437454
 C         -2.3368872161        0.0454907990        1.7187534797
 O         -1.4317628288        0.2173833949        2.5614109561
 H          1.3117786983       -0.3830201302        0.7948004821
 C          1.0343105438       -0.4658359463       -0.2465021273
 C         -0.1608541926       -1.0761330162       -0.5995656001
 C         -0.5050840427       -1.1471637099       -1.9457945125
 C          0.3377718561       -0.6264723231       -2.9103125255
 C          1.5418813741       -0.0435755563       -2.5572563387
 C          1.8889567510        0.0437170230       -1.2140310715
 N          3.0905511706        0.6561693252       -0.8241644002
 S          3.9002146280        0.0586305197        0.5305969965
 O          3.8904301635       -1.3869771568        0.5145240787
 O          3.3657197063        0.6891336053        1.7114246776
 C          5.5461465024        0.6675370157        0.2144556129
 C          6.4622964853       -0.1553481031       -0.4132514402
 C          7.7293312525        0.3366440148       -0.6848206312
 C          8.0558956662        1.6365652064       -0.3286813582
 C          7.1260800400        2.4501611262        0.3018222288
 C          5.8577510447        1.9642604718        0.5772641309
 H          5.1049747230        2.5548044140        1.0733133906
 H          7.3844697674        3.4591446989        0.5801177470
 H          9.0423738565        2.0173471029       -0.5409469534
 H          8.4554629172       -0.2943078330       -1.1714985832
 H          6.1663320947       -1.1615696476       -0.6630733193
 H          3.7188807029        0.8212500317       -1.5986243838
 H          2.2047559286        0.3495849387       -3.3131501169
 H          0.0592744886       -0.6862658670       -3.9516866352
 H         -1.4440980311       -1.5993826065       -2.2240503483
 C         -1.0469619898       -1.6528207789        0.4794871294
 H         -0.5107184983       -1.5460607692        1.4329350233
 C         -1.3019074061       -3.1289858045        0.2411609811
 C         -0.1831648823       -4.0966665474        0.4778486292
 C         -1.3551294781       -4.0611863025        1.4116437053
 H         -2.0597309622       -4.8788842180        1.3870880643
 H         -1.2109344134       -3.6378180880        2.3955278248
 H         -0.0820926991       -4.9402876610       -0.1875858083
 H          0.7585647071       -3.6957576532        0.8248301603
 H         -1.9750563366       -3.3250680148       -0.5824257530
 O         -3.4821266246       -1.7486353724       -1.2209198874
