  62
        -98.93844259
 C         -2.3483162881       -1.2719588628        0.2074410748
 C         -2.3371972278       -0.0302824358       -0.4675645325
 C         -3.2876461926        0.9969909982        0.0087598669
 C         -4.0946453121        0.7078434700        1.0462013013
 C         -5.1580487547        1.5688562548        1.6747538964
 C         -6.4333717328        1.6554304730        0.8214576024
 C         -6.1944172144        1.8834465247       -0.6685487604
 H         -5.5763198295        1.0737877455       -1.0604170448
 H         -7.1626561356        1.8260685522       -1.1726448407
 C         -5.5600350686        3.2250568188       -1.0276544191
 H         -6.1934115420        4.0330001195       -0.6548683702
 H         -5.5421518804        3.2938097635       -2.1183536957
 C         -4.1346841954        3.4494137013       -0.5169979796
 H         -4.1297949054        3.7166294222        0.5363182539
 H         -3.7267036723        4.3100359430       -1.0554023562
 C         -3.1782830465        2.2876038555       -0.7674010509
 H         -3.2212401689        2.0101067358       -1.8270151460
 H         -2.1511172246        2.6388910015       -0.6052838193
 H         -7.0595649546        2.4558597251        1.2189256530
 H         -6.9775141727        0.7142999000        0.9312098356
 H         -4.7627826260        2.5587442541        1.8823597677
 H         -5.4104178766        1.1046289508        2.6306720850
 O         -4.0661819068       -0.5045540609        1.6702929024
 C         -3.2001679208       -1.5069745057        1.2888179591
 O         -3.2808426166       -2.5472103980        1.9722407751
 O         -1.5803685840        0.2306836079       -1.4413096655
 C         -1.3897107795       -2.3930361198       -0.1650010604
 C          0.0006152561       -1.9486106284        0.2182984309
 C          0.4171078444       -2.0867667192        1.5395816782
 C          1.6515246477       -1.6140924213        1.9431598150
 C          2.4910990668       -0.9818443643        1.0419264207
 C          2.0773289177       -0.8249397621       -0.2732675183
 C          0.8483703838       -1.3250747718       -0.6833258907
 H          0.5347235312       -1.1837453431       -1.7052648115
 N          2.9148320153       -0.1638082564       -1.1901791776
 S          3.5252382265        1.3352096335       -0.7371596148
 O          2.6626116720        2.0047750826        0.2090450996
 O          3.7850379368        2.0310830707       -1.9789639850
 C          5.0823748647        0.9366502007        0.0320124124
 C          5.3595683719        1.3961104998        1.3045645415
 C          6.5810481741        1.0817144536        1.8800131536
 C          7.4992779150        0.3181390937        1.1758455870
 C          7.2070413107       -0.1329936016       -0.1028095279
 C          5.9884823492        0.1788978008       -0.6840451081
 H          5.7239844313       -0.1486186461       -1.6754636643
 H          7.9237668025       -0.7265384038       -0.6470810575
 H          8.4483431994        0.0737171563        1.6262203895
 H          6.8098217603        1.4328720356        2.8734630464
 H          4.6121684010        1.9818600491        1.8160105773
 H          2.5175522212       -0.1085641597       -2.1177552839
 H          3.4487737545       -0.5969911066        1.3524738696
 H          1.9622225936       -1.7324263661        2.9701511074
 H         -0.2507800190       -2.5552648509        2.2494091557
 H         -1.6635588325       -3.2440953196        0.4723546748
 C         -1.5281542463       -2.8067851797       -1.6148563802
 C         -0.9224377902       -4.1007561730       -2.0664064909
 C         -2.4111763442       -3.9657053194       -1.9627032019
 H         -2.9903613091       -3.9158467754       -2.8726224050
 H         -2.9162025369       -4.4700143778       -1.1517804022
 H         -0.4776925243       -4.1479079795       -3.0486373067
 H         -0.4149984319       -4.6973291336       -1.3235749188
 H         -1.5175485852       -1.9721695519       -2.3044628299
