  62
        -98.93715137
 C          1.7664517602        0.9014126424        0.2576282605
 C          3.1194815315        1.2038150601        0.5477164798
 C          4.0661389802        0.0747588496        0.5728809997
 C          3.6093654015       -1.1722366614        0.3546421759
 C          4.3190308927       -2.5100926847        0.3565307966
 C          5.8430286731       -2.5856160952        0.3208849422
 C          6.4762643840       -2.1082720856       -0.9857570170
 H          7.5611540582       -2.1082388569       -0.8601178412
 H          6.2327998450       -2.8268525121       -1.7725171577
 C          6.0326585881       -0.7298489985       -1.4695921712
 H          4.9632708818       -0.7452143948       -1.6907280274
 H          6.5511033447       -0.5226226091       -2.4097785882
 C          6.3263258174        0.4248496747       -0.5137188229
 H          6.1058485272        1.3555122061       -1.0440200423
 H          7.3879001726        0.4302199623       -0.2590724613
 C          5.5088567454        0.4298980351        0.7895791397
 H          5.9565251181       -0.2177924390        1.5395242987
 H          5.5168037903        1.4483387199        1.1890533548
 H          6.1052253436       -3.6395532694        0.4476410849
 H          6.2667155647       -2.0528675795        1.1671169671
 H          3.9136454179       -3.0631468923       -0.4967952422
 H          3.9679167789       -3.0299629721        1.2547427036
 O          2.2868495598       -1.4205899407        0.1284475496
 C          1.3379101791       -0.4106506168        0.0677200868
 O          0.1838484776       -0.8214486072       -0.1493552879
 O          3.5224909817        2.3728600783        0.7896062670
 C          0.7786792027        2.0518144353        0.2068701309
 C         -0.4734509759        1.7124452509        0.9760910677
 C         -0.3661466745        1.4520143639        2.3406178544
 C         -1.4827644770        1.1446836960        3.0922100474
 C         -2.7328903548        1.0946528436        2.4999638262
 C         -2.8532760834        1.3566447291        1.1409629955
 C         -1.7273694439        1.6661705426        0.3877352653
 H         -1.8479343541        1.8401405086       -0.6679597835
 N         -4.1193849946        1.3601868876        0.5288999522
 S         -4.4436659143        0.4963038754       -0.8656053906
 O         -3.5360935408        0.8854349263       -1.9126246123
 O         -5.8485098979        0.7372808871       -1.1171696875
 C         -4.2184043219       -1.2166374358       -0.4200437543
 C         -2.9415045637       -1.7112172545       -0.2470016485
 C         -2.7899132873       -3.0320403435        0.1479891810
 C         -3.9035337649       -3.8290675005        0.3613630940
 C         -5.1792404430       -3.3143782667        0.1837896321
 C         -5.3401979864       -1.9951195593       -0.2059211832
 H         -6.3113180786       -1.5523840593       -0.3581655876
 H         -6.0450882267       -3.9351921695        0.3493458627
 H         -3.7755492060       -4.8557401949        0.6669104593
 H         -1.7924258850       -3.4183894055        0.2857351443
 H         -2.0803319697       -1.0838341199       -0.4129254766
 H         -4.8846250099        1.2401712576        1.1776551077
 H         -3.6083646545        0.8579394770        3.0856306484
 H         -1.3818907442        0.9415155629        4.1477240232
 H          0.6113984401        1.4897797119        2.8024957850
 H          1.2877480496        2.8730139717        0.7398315725
 C          0.4942497642        2.5599616845       -1.1986023175
 C          1.5162071649        2.4504657331       -2.2892756873
 C          0.2618376492        1.6343220757       -2.3532812226
 H         -0.4972476316        1.8961283024       -3.0763426995
 H          0.3254528747        0.5739787166       -2.1651266461
 H          1.6290193393        3.2795265622       -2.9716125848
 H          2.4427909053        1.9443275685       -2.0598636800
 H         -0.0940868365        3.4729910680       -1.1865993493
