  62
        -98.94286108
 C          2.5006157240        0.1981540765       -0.2293083200
 C          2.3421679152        1.4030310488       -0.9581343954
 C          1.7626651440        2.5331750452       -0.2271542627
 C          1.4118216438        2.3802656932        1.0622174283
 C          0.7768792918        3.4273971168        1.9360167996
 C         -0.7464028906        3.5121669919        1.7637362821
 C         -1.2161735768        4.1886383830        0.4747028168
 H         -2.2797887723        4.4029896235        0.5968244109
 H         -0.7008255960        5.1428568919        0.3559014404
 C         -1.0299032733        3.3348794846       -0.7872396903
 H         -1.9381813355        3.3846041783       -1.3930919521
 H         -0.8938773149        2.2906488452       -0.4959495391
 C          0.1320436498        3.7652727324       -1.6833923150
 H          0.2002275775        3.0608299338       -2.5163723392
 H         -0.0704881498        4.7569901151       -2.0951976881
 C          1.4970625988        3.7997973684       -0.9846107344
 H          2.2705624171        3.8957800676       -1.7510122475
 H          1.5567014562        4.6592115935       -0.3170743959
 H         -1.1549230825        2.4987843866        1.8104440310
 H         -1.1421871060        4.0744824740        2.6131624008
 H          1.2263506036        4.4011710983        1.7378759191
 H          0.9931383594        3.1455069873        2.9688614364
 O          1.6118819759        1.2210806914        1.7402164290
 C          2.0994679363        0.0895558139        1.1044268033
 O          2.1463611244       -0.9173229662        1.8389032822
 O          2.6569777126        1.5215077157       -2.1739376162
 C          2.9480332575       -1.0345972996       -0.9984376937
 C          1.9709139739       -2.1501839813       -0.7192585914
 C          2.3318559533       -3.4373999999       -0.3480648777
 C          1.3585122829       -4.3723986063       -0.0365684865
 C          0.0188440897       -4.0328101742       -0.0480849158
 C         -0.3522526144       -2.7472471142       -0.4261138397
 C          0.6185390042       -1.8402636487       -0.8088741780
 H          0.3223598801       -0.8473519198       -1.1128077884
 N         -1.7058211869       -2.3367777484       -0.4255192579
 S         -2.1033494502       -1.0398014989        0.5920121684
 O         -1.2209030019        0.0709112414        0.3602613575
 O         -2.2054185971       -1.5205626558        1.9559146950
 C         -3.7319642509       -0.6531220243       -0.0208716085
 C         -3.8450986352        0.2026012233       -1.0989981003
 C         -5.1051130393        0.4840273374       -1.6025384355
 C         -6.2249060464       -0.0950987100       -1.0244076275
 C         -6.0959165230       -0.9515837175        0.0584034917
 C         -4.8381915139       -1.2360046387        0.5666275792
 H         -4.6916891971       -1.8840531150        1.4156163593
 H         -6.9684542396       -1.3971924993        0.5082201589
 H         -7.2042263390        0.1254823501       -1.4187375249
 H         -5.2080039699        1.1523167396       -2.4422818340
 H         -2.9475405482        0.6352726814       -1.5104999856
 H         -2.3209441482       -3.1038388598       -0.1804610415
 H         -0.7347545883       -4.7492320193        0.2446074033
 H          1.6510819540       -5.3706917094        0.2526369481
 H          3.3732197780       -3.7047378346       -0.2728968086
 H          2.8424164607       -0.7431442433       -2.0577458578
 C          4.4038835447       -1.4276858183       -0.8032591435
 C          5.4136151321       -0.4349527862       -0.3120919258
 C          5.0125697463       -1.5872551164        0.5565999605
 H          5.7251565304       -2.3849399833        0.7085404029
 H          4.3794639653       -1.3954308388        1.4084280791
 H          6.3972003374       -0.4405172917       -0.7574801396
 H          5.0573686520        0.5502925611       -0.0475030002
 H          4.7463426979       -2.1142450036       -1.5715919796
