  62
        -98.94103758
 C         -1.5734071846       -0.8471844294       -0.3345392327
 C         -2.8740354104       -1.2569721954       -0.7256121617
 C         -3.9847873732       -0.7504951746        0.0876334212
 C         -3.7261151522        0.0040976284        1.1704819641
 C         -4.7475980860        0.5748836304        2.1164545914
 C         -5.3669251917        1.8971436801        1.6431920784
 C         -6.3483955196        1.7757763136        0.4767440742
 H         -7.0976655688        1.0187880344        0.7105922909
 H         -6.8676669411        2.7326490727        0.3939130083
 C         -5.6915893082        1.4529394701       -0.8727487992
 H         -4.6206715794        1.6614727870       -0.8156278087
 H         -6.1034367407        2.1071114211       -1.6445135658
 C         -5.8908818250        0.0129727920       -1.3461521175
 H         -6.9513773474       -0.1672834579       -1.5356569873
 H         -5.3545776254       -0.1155094734       -2.2901116389
 C         -5.3822776632       -1.0500834255       -0.3635423359
 H         -6.0523957989       -1.1223618397        0.4929063836
 H         -5.3661432446       -2.0139196875       -0.8783795655
 H         -4.5612988423        2.5829164778        1.3712549772
 H         -5.8990444672        2.3299426964        2.4934706083
 H         -5.5373104089       -0.1571938638        2.2881110123
 H         -4.2296052147        0.7555805624        3.0607243912
 O         -2.4622021268        0.3226188010        1.5510625543
 C         -1.3540505024       -0.0752324655        0.8083579778
 O         -0.2725983734        0.3167470976        1.2801513521
 H          2.1131800415       -0.3801960120       -0.6259791780
 C          1.8908035530       -1.2956595167       -0.1053436585
 C          0.6633128969       -1.9125553079       -0.2801408426
 C          0.3981019149       -3.0874871677        0.4186072982
 C          1.3404179172       -3.6274146202        1.2719623178
 C          2.5657133138       -3.0080446979        1.4455773123
 C          2.8372276823       -1.8316278294        0.7569154863
 N          4.0465919096       -1.1604214796        0.9529889402
 S          4.6765196463       -0.0667370816       -0.1250879168
 O          4.5639526003       -0.5318053389       -1.4891337389
 O          6.0277550301        0.1571375031        0.3455764230
 C          3.7341911631        1.4302513294        0.0854408581
 C          3.6888890135        2.3164751993       -0.9730334593
 C          2.9984163443        3.5081743668       -0.8234885732
 C          2.3653660637        3.7906086970        0.3769945651
 C          2.4208545964        2.8908384772        1.4295048429
 C          3.1148242582        1.6999883364        1.2883603149
 H          3.1585932078        0.9791369570        2.0873513185
 H          1.9177389153        3.1055726752        2.3583990293
 H          1.8221051818        4.7155808690        0.4909859561
 H          2.9517307097        4.2084851886       -1.6423723671
 H          4.1836820446        2.0500831444       -1.8938533546
 H          4.7337512245       -1.6116121511        1.5353017734
 H          3.3015957774       -3.4243578637        2.1164126446
 H          1.1218384366       -4.5388235101        1.8080434798
 H         -0.5629070855       -3.5668062276        0.2892771530
 C         -0.4059444088       -1.3382583498       -1.1721215170
 H         -0.8285527037       -2.1629208348       -1.7704874813
 C          0.1278971819       -0.3146350264       -2.1626290235
 C         -0.7921251674        0.6751915177       -2.8107111575
 C          0.2466973521        1.1433772939       -1.8383723521
 H          1.1036336416        1.6793342006       -2.2201092937
 H         -0.0648503025        1.4696238425       -0.8587624488
 H         -0.6564439248        0.8955376837       -3.8587924747
 H         -1.8251404661        0.6740748306       -2.4940989449
 H          0.9084659383       -0.7334114849       -2.7919243115
 O         -3.0958558157       -2.0170183080       -1.7059401102
