  62
        -98.94368031
 C         -1.7942670705       -0.3619172463       -0.3103180052
 C         -2.9677874318       -0.6844125023       -1.0321524682
 C         -4.2199313137       -0.6366781313       -0.2690994070
 C         -4.1917889517       -0.3262806153        1.0400428568
 C         -5.3812609750       -0.2650077530        1.9597506160
 C         -6.1416497533        1.0673739577        1.9106538973
 C         -6.9686485585        1.2986233599        0.6453235827
 H         -7.6153320592        0.4377408093        0.4726650772
 H         -7.6147492052        2.1575828011        0.8373649407
 C         -6.1353544543        1.5798791648       -0.6128418110
 H         -6.5604346485        2.4316502692       -1.1485342284
 H         -5.1198554176        1.8588305661       -0.3226737590
 C         -6.0641563338        0.4145585684       -1.5996451968
 H         -5.4204092212        0.7094330863       -2.4322795820
 H         -7.0598836075        0.2110944210       -1.9999906890
 C         -5.5029302440       -0.8832402111       -1.0039981492
 H         -5.2887001886       -1.5726613641       -1.8245083591
 H         -6.2383564128       -1.3432612201       -0.3442178765
 H         -5.4250873801        1.8828955059        2.0317430216
 H         -6.8171652646        1.0882025527        2.7689488725
 H         -6.0643390324       -1.0835590746        1.7309392345
 H         -4.9974554564       -0.4051068394        2.9725452034
 O         -3.0386641192       -0.0441645064        1.7027144396
 C         -1.8157632058       -0.0388200012        1.0465786654
 O         -0.8466299104        0.2586290956        1.7692234713
 O         -2.9672179988       -1.0057795148       -2.2512737070
 C         -0.4595705005       -0.3756887868       -1.0316816090
 C          0.4840318835       -1.3530270632       -0.3759449161
 C          0.0220458933       -2.6273366359       -0.0547590801
 C          0.8531248110       -3.5479169457        0.5518575627
 C          2.1679006623       -3.2241789753        0.8387162281
 C          2.6434498491       -1.9609319147        0.5116249574
 C          1.8024146937       -1.0349578944       -0.0918944046
 H          2.1910612512       -0.0621946772       -0.3406634573
 N          3.9626822575       -1.5957155664        0.8095839192
 S          4.8278115624       -0.5913248095       -0.2050441310
 O          4.5146308544       -0.8337705942       -1.5940028039
 O          6.2094886818       -0.7984299180        0.1747598623
 C          4.3461187189        1.0598955476        0.2546843541
 C          4.2851940664        2.0302365508       -0.7260170472
 C          3.9487581188        3.3264197200       -0.3684598002
 C          3.6811957196        3.6281184058        0.9577813885
 C          3.7501427849        2.6428603615        1.9309357043
 C          4.0895774754        1.3458350978        1.5807135704
 H          4.1447264225        0.5568828209        2.3120712184
 H          3.5368973452        2.8799719948        2.9608461987
 H          3.4152422676        4.6362835537        1.2342310686
 H          3.8944518893        4.0942737657       -1.1239848594
 H          4.4903403149        1.7483291367       -1.7467303162
 H          4.5356423046       -2.3243356838        1.2084887231
 H          2.8184074615       -3.9420728376        1.3146613835
 H          0.4774903316       -4.5292061539        0.8005617658
 H         -1.0037684782       -2.8838457141       -0.2824033978
 H         -0.6782835840       -0.7437847734       -2.0457613818
 C          0.0956201564        1.0296179487       -1.1338510044
 C          0.9862683992        1.4124329777       -2.2765525907
 C         -0.4172845780        1.9331310515       -2.2134482053
 H         -0.5707236555        2.9766354200       -1.9834449846
 H         -1.1478715098        1.5239205259       -2.8960207890
 H          1.7965099053        2.0997225949       -2.0860708319
 H          1.2189788815        0.6520348388       -3.0069668291
 H          0.2920846323        1.4701757976       -0.1624602173
