  62
        -98.93697751
 C         -0.8871330450       -1.6806852657       -0.7910763728
 C         -2.0484850094       -2.0464696542       -0.0663325310
 C         -3.1929748253       -1.1215629508       -0.1230319337
 C         -3.0772866081        0.0083272864       -0.8418248463
 C         -4.0842050131        1.1170681229       -0.9778713807
 C         -3.8340044861        2.2076889549        0.0774490318
 C         -4.5338832481        1.9842012779        1.4170055722
 H         -4.1815673540        2.7588512198        2.1017117658
 H         -5.6095202982        2.1241434951        1.2904486790
 C         -4.2908799506        0.6158474683        2.0582772964
 H         -3.2374356565        0.3457560668        1.9625057601
 H         -4.5068517375        0.7008783865        3.1251092242
 C         -5.1692977992       -0.4933083847        1.4609621455
 H         -5.9495935499       -0.0411342042        0.8490636809
 H         -5.6786684432       -1.0262706891        2.2667460301
 C         -4.4168209055       -1.5501515577        0.6403277771
 H         -5.1153194075       -2.0219856463       -0.0593443480
 H         -4.0623835124       -2.3429395867        1.3067590248
 H         -4.1718414861        3.1655544837       -0.3226689238
 H         -2.7552168806        2.2747335599        0.2342034218
 H         -3.9360909306        1.5499856698       -1.9690703378
 H         -5.0964122125        0.7287788968       -0.9136492342
 O         -1.9478597941        0.3208169146       -1.5317767308
 C         -0.8301272736       -0.5027225449       -1.5372035935
 O          0.1023581475       -0.0702372660       -2.2361709851
 O         -2.1254019956       -3.1119982112        0.6046706367
 C          0.2962553700       -2.6261500970       -0.6942382487
 C          1.1896018179       -2.2422312320        0.4580511619
 C          1.6021466200       -3.1939248285        1.3837401417
 C          2.4183843154       -2.8380666725        2.4424864919
 C          2.8504399043       -1.5323120468        2.5871223343
 C          2.4410660987       -0.5716981065        1.6689343977
 C          1.6054870295       -0.9279626921        0.6204238006
 H          1.2892232421       -0.1755991536       -0.0853986622
 N          2.8438443942        0.7652716506        1.7948629422
 S          3.2431077450        1.6338813857        0.4163107786
 O          3.8176150809        0.7774630715       -0.5938407658
 O          4.1046777671        2.6923959547        0.9052810266
 C          1.7211386356        2.3698611228       -0.1318020478
 C          0.8827172962        2.9208540965        0.8178735785
 C         -0.2684494164        3.5655002522        0.3980734837
 C         -0.5578698042        3.6510059917       -0.9563358472
 C          0.2945788672        3.0937443613       -1.8945204292
 C          1.4488271280        2.4467271974       -1.4816362447
 H          2.1250265688        1.9829878011       -2.1813240696
 H          0.0630250234        3.1453915929       -2.9459711060
 H         -1.4563149140        4.1514797416       -1.2821826634
 H         -0.9359153341        4.0002403821        1.1255530337
 H          1.1409276428        2.8339902672        1.8604542125
 H          3.4898230234        0.9474696243        2.5495452938
 H          3.4958885866       -1.2537167565        3.4062073863
 H          2.7281882462       -3.5850499174        3.1574420175
 H          1.2665075166       -4.2148890152        1.2758129529
 H         -0.1444538599       -3.6070342279       -0.4528776612
 C          1.0602309716       -2.7902170497       -1.9996215374
 C          2.3770742067       -2.1413356578       -2.2884928552
 C          2.3115972215       -3.6172719174       -2.0416592567
 H          2.4616328918       -4.2890169631       -2.8734052747
 H          2.6988954879       -3.9823010591       -1.1021660519
 H          2.5445859933       -1.7906708260       -3.2959160393
 H          2.8251787063       -1.5034245309       -1.5419173921
 H          0.3855428295       -2.8883804589       -2.8449020737
