  62
        -98.93808288
 C         -2.0031268521       -1.2889159091       -0.0946352293
 C         -2.3945828304       -0.2608464625       -0.9830494104
 C         -3.8047832098        0.1671838486       -0.9068825541
 C         -4.6257478525       -0.4283881767       -0.0252244902
 C         -6.0696825543       -0.1084372716        0.2457879201
 C         -6.1956398613        0.8880986690        1.4105738703
 C         -6.1151043612        2.3607205599        1.0101248741
 H         -7.0273727225        2.6381997999        0.4778071289
 H         -6.0826532085        2.9468481308        1.9314562183
 C         -4.9103397369        2.7396618039        0.1447069531
 H         -4.0115322815        2.2542545886        0.5300906178
 H         -4.7579615701        3.8169252455        0.2366827005
 C         -5.0992000537        2.3900110617       -1.3390180292
 H         -4.8800709841        3.2698374394       -1.9477077075
 H         -6.1462552956        2.1451038249       -1.5167834116
 C         -4.2066407373        1.2559161740       -1.8642835427
 H         -4.6890260338        0.7962403830       -2.7335376418
 H         -3.2595068530        1.6749180402       -2.2188676968
 H         -7.1534367817        0.7256126253        1.9090095543
 H         -5.4081937995        0.6597758947        2.1334918776
 H         -6.5566815801        0.2679930322       -0.6487512987
 H         -6.5463176314       -1.0464049185        0.5382132514
 O         -4.2065983556       -1.4154397111        0.8135966407
 C         -2.8987970378       -1.8578515809        0.8136600501
 O         -2.6568343848       -2.7509668141        1.6496725358
 O         -1.6152196748        0.2840647486       -1.8089802905
 C         -0.5712821127       -1.7994882232       -0.0538331198
 C          0.3102614138       -0.7074091009        0.5004329799
 C          0.3749792251       -0.5194830586        1.8781124081
 C          1.1528302704        0.4872427576        2.4193143328
 C          1.8795273179        1.3309044719        1.5970505489
 C          1.8132106041        1.1562057083        0.2217730921
 C          1.0428126804        0.1360684994       -0.3199166742
 H          0.9910094369        0.0204111157       -1.3906531674
 N          2.5637157459        2.0049876423       -0.6172039975
 S          4.2160947688        2.0143627284       -0.3387982644
 O          4.5058540012        2.8475463939        0.8010020867
 O          4.8212892438        2.4163259156       -1.5887394852
 C          4.6016607464        0.3131547064        0.0351335863
 C          4.8799941930       -0.0604556354        1.3337899370
 C          5.0936911178       -1.4008439910        1.6132688076
 C          5.0194665234       -2.3390533564        0.5957927114
 C          4.7409146020       -1.9473071753       -0.7047922247
 C          4.5257874008       -0.6091901717       -0.9897638550
 H          4.3126456704       -0.2672863130       -1.9899191430
 H          4.6848292352       -2.6800196420       -1.4937395756
 H          5.1798291467       -3.3826717618        0.8162576746
 H          5.3112864680       -1.7090419895        2.6231961462
 H          4.9269875107        0.7006744751        2.0950568051
 H          2.3695215830        1.8638616382       -1.5982452848
 H          2.4942802898        2.1211661003        1.9969759141
 H          1.1942487706        0.6178873318        3.4900092686
 H         -0.2014163424       -1.1723298015        2.5191217609
 H         -0.5720409896       -2.6288545943        0.6656646107
 C         -0.1129317618       -2.3219832089       -1.3999593275
 C          1.1665131559       -3.0980422491       -1.4831828805
 C         -0.1472658211       -3.7955032153       -1.6653765090
 H         -0.4203310078       -4.1339126825       -2.6537786714
 H         -0.5010626705       -4.4379955524       -0.8723826944
 H          1.7968269132       -2.9593290597       -2.3481038125
 H          1.7082292971       -3.2624069716       -0.5640811582
 H         -0.3630825045       -1.6656538624       -2.2239826447
