  62
        -98.93862849
 C         -1.6766450569       -0.9893496371       -0.0146482938
 C         -2.8872393297       -1.0100644960        0.7239785023
 C         -4.0720835246       -0.3769755733        0.1151902271
 C         -3.9507800064        0.1723623533       -1.1071628244
 C         -4.9933915199        0.8964004571       -1.9166900356
 C         -5.2557308298        2.3221396614       -1.4060971829
 C         -5.3828873081        2.4476110824        0.1098405448
 H         -5.4625017508        3.5114463992        0.3491427636
 H         -4.4683038062        2.0793287090        0.5785371803
 C         -6.5889620715        1.7393563702        0.7224208746
 H         -7.5025344263        2.1333261548        0.2715588842
 H         -6.6076029412        1.9936331334        1.7853031575
 C         -6.6044260895        0.2138965254        0.6002307837
 H         -6.9067223289       -0.0979224964       -0.3959679170
 H         -7.3698496948       -0.1590882237        1.2870574802
 C         -5.2977592688       -0.4689428969        0.9914808072
 H         -5.4888802569       -1.5414485489        1.1176556645
 H         -4.9896739319       -0.1145790745        1.9818381855
 H         -6.1629850758        2.6976955852       -1.8824113025
 H         -4.4221837015        2.9538332682       -1.7232526768
 H         -5.9131876929        0.3197508016       -1.9432209319
 H         -4.6100422682        0.9581783005       -2.9376823810
 O         -2.7694075389        0.1677006835       -1.7845169511
 C         -1.6137486728       -0.3946849043       -1.2739809343
 O         -0.6325066072       -0.2862770642       -2.0384953923
 O         -2.9815036427       -1.5447602101        1.8616890515
 C         -0.4778499267       -1.6637360532        0.6295195188
 C          0.4707200376       -0.6771000295        1.2661455168
 C          0.8521056437       -0.8036051575        2.5965924160
 C          1.7619360261        0.0759320490        3.1585919500
 C          2.3073129061        1.1019486864        2.4072321780
 C          1.9238375274        1.2408087796        1.0804517011
 C          1.0208949834        0.3527252972        0.5165281890
 H          0.7412206295        0.4611848559       -0.5208757668
 N          2.4901665395        2.2743400013        0.2956452964
 S          4.1105874930        2.0309848753       -0.0664649760
 O          4.8832003710        2.1944725075        1.1386045974
 O          4.4176481550        2.9361131445       -1.1505012128
 C          4.1845688729        0.3376189884       -0.6194839857
 C          4.4477698890       -0.6619661135        0.2951892374
 C          4.4119739224       -1.9804705882       -0.1280876759
 C          4.1106833325       -2.2738308984       -1.4490400536
 C          3.8445465322       -1.2584633269       -2.3544438775
 C          3.8753895164        0.0616124453       -1.9360499062
 H          3.6745435840        0.8795256938       -2.6098148638
 H          3.6041976785       -1.4897811254       -3.3798849390
 H          4.0838964500       -3.3007065538       -1.7790882179
 H          4.6128907921       -2.7730303378        0.5744731588
 H          4.6786125447       -0.3906418757        1.3121675940
 H          1.9871832370        2.4109833801       -0.5711182199
 H          3.0295525294        1.7874598865        2.8201009389
 H          2.0491481805       -0.0375387546        4.1927408779
 H          0.4242836197       -1.5944669746        3.1948055563
 H         -0.9003251172       -2.2867115570        1.4291508903
 C          0.2895189688       -2.5608958937       -0.3240950994
 C          1.0465472561       -3.7295069759        0.2275584120
 C         -0.2012980802       -3.9542658790       -0.5714221785
 H         -0.1150195761       -4.3600333440       -1.5680118197
 H         -1.0938612828       -4.2683183651       -0.0497418394
 H          1.9945697624       -3.9828680421       -0.2190318723
 H          1.0008030866       -3.8975332942        1.2926027880
 H          0.7214890621       -2.0272795379       -1.1609923197
