  62
        -98.93108620
 C         -2.3598509695       -1.1538596882        0.0029741641
 C         -3.1638715186       -0.4537357339       -0.9267472143
 C         -4.4836501920        0.0135495858       -0.4446959897
 C         -4.8414972413       -0.2330499997        0.8281724990
 C         -6.1018344773        0.1758783404        1.5434024404
 C         -6.1076721244        1.6629011874        1.9319438516
 C         -5.6255001128        2.6130802132        0.8391563515
 H         -5.5797230091        3.6170827783        1.2692451455
 H         -4.6096429950        2.3388481697        0.5491834000
 C         -6.5101466479        2.6770601732       -0.4036337685
 H         -7.5178039253        2.9804714404       -0.1109007102
 H         -6.1034314341        3.4584608863       -1.0505424041
 C         -6.6088628869        1.3882040440       -1.2228991260
 H         -7.0492205898        1.6507897099       -2.1892995453
 H         -7.2878769437        0.6778581368       -0.7589170816
 C         -5.2708814783        0.7197737384       -1.5226967143
 H         -5.4238267368       -0.0274640570       -2.3107548679
 H         -4.5905039971        1.4599322876       -1.9586226291
 H         -7.1199037974        1.9356592393        2.2353206829
 H         -5.4508389522        1.7884440049        2.7962715619
 H         -6.9706672415       -0.0701926204        0.9402777554
 H         -6.1507414533       -0.4220999073        2.4562174141
 O         -4.0240215408       -0.8992635651        1.6949187987
 C         -2.7868201860       -1.3712151038        1.3148178107
 O         -2.1637922412       -1.9697189358        2.2170350970
 H          1.2311874347       -1.9352789951        1.1742371206
 C          1.1769300199       -0.9762712656        0.6750614020
 C          0.0878720736       -0.6887568007       -0.1346588643
 C          0.0289166659        0.5563911922       -0.7535970723
 C          1.0430322499        1.4792614090       -0.5724581491
 C          2.1338745077        1.1817993555        0.2269123526
 C          2.1955341950       -0.0524837811        0.8574089768
 N          3.3282084429       -0.3600695814        1.6546489479
 S          4.6482069957       -0.8702413712        0.7342785307
 O          4.2211143415       -1.7182971483       -0.3570947091
 O          5.5751360328       -1.4615973657        1.6735598654
 C          5.3118417904        0.6517821195        0.1000989570
 C          5.9678426977        1.4964831187        0.9743420880
 C          6.4660129729        2.6974015800        0.4949563688
 C          6.2987553134        3.0305521603       -0.8412688477
 C          5.6391688029        2.1700075910       -1.7057668259
 C          5.1387563280        0.9668561308       -1.2331489446
 H          4.6161385349        0.2683842493       -1.8667718400
 H          5.5097347949        2.4313275914       -2.7437035614
 H          6.6853512933        3.9668854397       -1.2117228630
 H          6.9804216370        3.3693410703        1.1629767971
 H          6.0777429710        1.1945111910        2.0026576197
 H          3.1319335005       -1.0724630859        2.3456253465
 H          2.9237596980        1.8993835554        0.3772286350
 H          0.9846778351        2.4404597740       -1.0598010265
 H         -0.8191975644        0.7862208136       -1.3808341125
 C         -0.9907008284       -1.7205510622       -0.3344089994
 H         -0.8245701786       -2.5162532021        0.4099770978
 C         -0.9318462324       -2.3821565562       -1.7049719135
 C         -0.1963970232       -1.8222338605       -2.8809872911
 C          0.3435527283       -3.0234747121       -2.1687642851
 H          0.2932963897       -3.9859061388       -2.6554871581
 H          1.2248817340       -2.8859571178       -1.5577436485
 H         -0.6452739738       -1.9498276249       -3.8540787355
 H          0.3264968296       -0.8869272316       -2.7633213721
 H         -1.8498255160       -2.9171569524       -1.9280318658
 O         -2.8212901006       -0.2097427385       -2.1113263443
