  62
        -98.94123843
 C         -2.2206756693       -0.9580964206       -0.0470236024
 C         -2.9048983834       -0.3846501686        1.0570054998
 C         -3.7249346933        0.8005242838        0.7787524695
 C         -3.7600556578        1.2925851118       -0.4725739590
 C         -4.5889932191        2.4633273836       -0.9132170879
 C         -5.9695530638        2.0118182226       -1.4101976310
 C         -6.6868835766        1.0567701585       -0.4561422938
 H         -7.6609589187        0.8299791012       -0.8947435387
 H         -6.1299736107        0.1183057619       -0.4065383680
 C         -6.8804709456        1.6054197507        0.9643869670
 H         -6.7573149928        2.6890042708        0.9629853759
 H         -7.9031900090        1.3956469439        1.2843967952
 C         -5.9509935192        0.9918284628        2.0132160489
 H         -6.3146183528        1.2835626848        3.0020055367
 H         -6.0011315994       -0.0982901228        1.9545997387
 C         -4.4778439465        1.4110463864        1.9271769119
 H         -3.9773575703        1.0581990824        2.8336429934
 H         -4.4054321613        2.5003221682        1.8979531086
 H         -6.5846640232        2.8988812471       -1.5716357957
 H         -5.8429875028        1.5063810265       -2.3704141649
 H         -4.0655560367        2.9683928512       -1.7270018247
 H         -4.6986399729        3.1561163926       -0.0809882747
 O         -3.0683922412        0.7395177728       -1.4992165691
 C         -2.2857256954       -0.3956595857       -1.3218235852
 O         -1.7214688738       -0.7743724983       -2.3663856093
 O         -2.8371561808       -0.8539593845        2.2243267237
 C         -1.3933533381       -2.2005052205        0.2401706487
 C          0.0393103527       -1.8242880545        0.5192319885
 C          0.6559437238       -2.1736328124        1.7142321714
 C          1.9621661178       -1.7925439707        1.9696672062
 C          2.6787403185       -1.0605745630        1.0400379774
 C          2.0692191189       -0.7017422745       -0.1553793346
 C          0.7607524543       -1.0841702972       -0.4084169928
 H          0.2887402510       -0.7990254845       -1.3376123549
 N          2.7902117137        0.0415879854       -1.1106226617
 S          3.4336600909        1.5076730991       -0.5962604805
 O          2.6582736137        2.0740942475        0.4843010228
 O          3.5583411461        2.3136563209       -1.7911915884
 C          5.0610680037        1.0714685512       -0.0196464702
 C          5.4412512045        1.3798961083        1.2717505821
 C          6.7150809291        1.0336399429        1.6955807808
 C          7.5807522439        0.3891898483        0.8251710587
 C          7.1840514234        0.0886087956       -0.4695975280
 C          5.9129111359        0.4334056792       -0.9001820353
 H          5.5659337610        0.2223945368       -1.8979138074
 H          7.8599371391       -0.4127582667       -1.1434801853
 H          8.5705830432        0.1194469038        1.1579662783
 H          7.0251214600        1.2667845410        2.7015449037
 H          4.7310541074        1.8756283150        1.9143126010
 H          2.2762530317        0.1746278507       -1.9708657244
 H          3.6953887950       -0.7596443764        1.2335549943
 H          2.4275558173       -2.0678430754        2.9036446600
 H          0.0979082615       -2.7306856317        2.4524237939
 H         -1.8155948128       -2.6012691643        1.1750525912
 C         -1.5414858291       -3.2786154033       -0.8255311686
 C         -0.4197334223       -3.7523796484       -1.6962504647
 C         -0.9368225987       -4.6334922100       -0.6017712773
 H         -1.5119701448       -5.5083527323       -0.8640339547
 H         -0.3146522439       -4.7568115625        0.2719320821
 H         -0.6554989576       -3.9986440097       -2.7204428417
 H          0.5531059881       -3.3039756322       -1.5714684283
 H         -2.5234717071       -3.2563682608       -1.2873686907
