  62
        -98.93941811
 C         -2.2526976858       -0.8194138132       -0.0472747069
 C         -3.2737162383       -0.6995429260        0.9265352258
 C         -4.1849726719        0.4502682886        0.7986679291
 C         -3.9975672514        1.3306803795       -0.2021947666
 C         -4.7280335055        2.6097954466       -0.5548115746
 C         -6.0822583166        2.9343075237        0.0706398792
 C         -7.2226787073        2.0117197114       -0.3586399247
 H         -7.4465984977        2.2036506496       -1.4110458650
 H         -8.1096772477        2.2722443829        0.2228246385
 C         -6.9528453140        0.5164120980       -0.2108948461
 H         -6.1274951422        0.2264339920       -0.8643802054
 H         -7.8408583100       -0.0189525987       -0.5577140146
 C         -6.6509460502        0.0434278989        1.2096321641
 H         -6.6369453288       -1.0496557793        1.1959301422
 H         -7.4522412740        0.3591008241        1.8804225297
 C         -5.3080466082        0.5153624056        1.7935659068
 H         -5.0359915639       -0.1640269652        2.6064900111
 H         -5.3888753624        1.5137125764        2.2166571942
 H         -6.3383361624        3.9470649934       -0.2523918113
 H         -5.9999789252        2.9616103468        1.1531214075
 H         -4.8296202261        2.6031250989       -1.6448262467
 H         -4.0322906908        3.4223296034       -0.3169737618
 O         -2.9799586455        1.1892794343       -1.1014459899
 C         -2.0940105657        0.1248697072       -1.0593752865
 O         -1.2421871501        0.1422365153       -1.9695576463
 O         -3.4185795252       -1.5207075913        1.8707621243
 C         -1.2973986013       -1.9969306303        0.0583978271
 C          0.0618138158       -1.4723842279        0.4489941264
 C          0.3297084093       -1.2075373566        1.7894020125
 C          1.5434737872       -0.6696928969        2.1730344311
 C          2.5125040794       -0.3754693382        1.2290006430
 C          2.2466746019       -0.6163200458       -0.1116249378
 C          1.0348861678       -1.1782727932       -0.4928467815
 H          0.8373440500       -1.3481609670       -1.5392988706
 N          3.2169316726       -0.3123402012       -1.0811064386
 S          4.0240158292        1.1548969210       -0.9813479401
 O          3.2228487366        2.1726906768       -0.3411783948
 O          4.4654314122        1.4356645990       -2.3303661315
 C          5.4483633330        0.7756271398        0.0205574673
 C          6.2350744272       -0.2984915893       -0.3473245684
 C          7.3510655912       -0.6032572480        0.4152831998
 C          7.6625387030        0.1685782926        1.5247842673
 C          6.8655315838        1.2462796820        1.8786606404
 C          5.7468228871        1.5556947056        1.1204427444
 H          5.0947164080        2.3803425063        1.3613657581
 H          7.1091326536        1.8458566756        2.7410155879
 H          8.5314208162       -0.0711051821        2.1171274166
 H          7.9729806369       -1.4407609683        0.1431515869
 H          5.9600918962       -0.8711044281       -1.2171625516
 H          2.9052787344       -0.4839955228       -2.0264440246
 H          3.4566810827        0.0551395432        1.5195666234
 H          1.7388635119       -0.4743621683        3.2165096026
 H         -0.4344276531       -1.4173561059        2.5247743927
 H         -1.6794344568       -2.6043429524        0.8897621109
 C         -1.2899923296       -2.8417270166       -1.1982958774
 C         -0.6773250828       -4.2088229894       -1.1560357868
 C         -2.1636859886       -4.0567119634       -1.2686764510
 H         -2.6380998060       -4.2949354011       -2.2089553133
 H         -2.7690116196       -4.2872930144       -0.4043918743
 H         -0.1288659649       -4.5557660235       -2.0183391578
 H         -0.2717080059       -4.5411153549       -0.2125632259
 H         -1.1785347487       -2.2622414117       -2.1067700802
