  62
        -98.93719704
 C         -1.3904173440       -1.2572693631        0.0069946825
 C         -2.6523161015       -1.3199387622        0.6510522969
 C         -3.4326387509       -0.0727811069        0.7251403537
 C         -2.9086832040        1.0611175260        0.2243217882
 C         -3.4334333146        2.4817721913        0.2141252364
 C         -4.9002910260        2.7752504325        0.5184411712
 C         -5.8880394775        2.2530730021       -0.5241617309
 H         -6.9003593992        2.4360327695       -0.1570507092
 H         -5.7598456415        2.8283433200       -1.4446296641
 C         -5.7496054497        0.7753113421       -0.8818931116
 H         -6.5125056793        0.5395172920       -1.6289734934
 H         -4.7784660803        0.6004319801       -1.3495097990
 C         -5.9233582872       -0.1989189700        0.2819232157
 H         -5.9666530361       -1.2078616393       -0.1376410739
 H         -6.8739050376       -0.0066711727        0.7833778279
 C         -4.8006039713       -0.1826881322        1.3342648491
 H         -4.9585765184        0.6036506575        2.0686921975
 H         -4.8238047466       -1.1373876612        1.8678951904
 H         -5.1617727094        2.4079786709        1.5064876860
 H         -4.9999913324        3.8637198162        0.5497301484
 H         -2.8171862737        3.0301804979        0.9349494701
 H         -3.1867903993        2.8826689159       -0.7739267431
 O         -1.6777903604        1.0819228484       -0.3595595901
 C         -0.8941732175       -0.0547027210       -0.5005476110
 O          0.1802043116        0.1587334257       -1.0886364065
 H          1.7458706390       -1.8424045019       -1.3009294600
 C          1.8562559974       -1.8397944529       -0.2281039542
 C          0.7898337396       -2.2185920211        0.5724689644
 C          0.9500349956       -2.1983248082        1.9540932313
 C          2.1490613262       -1.8051746754        2.5198570773
 C          3.1996134158       -1.3918543528        1.7191696021
 C          3.0410367511       -1.3929012829        0.3395395948
 N          4.0849479312       -0.9200512242       -0.4833076436
 S          4.6121907346        0.6478896038       -0.2097200773
 O          5.3891050492        0.9927717893       -1.3798406055
 O          5.3186895722        0.6855936161        1.0477655094
 C          3.1572897556        1.6744511059       -0.1157629088
 C          2.5170791218        1.8338269385        1.0959962532
 C          1.3655953024        2.6016906369        1.1466488865
 C          0.8795113468        3.1969820749       -0.0059440314
 C          1.5372245744        3.0306722919       -1.2135515621
 C          2.6835871675        2.2571647700       -1.2727941293
 H          3.2217921052        2.1004925543       -2.1940198740
 H          1.1509599563        3.4881045000       -2.1103558487
 H         -0.0235529523        3.7859300472        0.0346785448
 H          0.8466318751        2.7247917110        2.0845459197
 H          2.9255712917        1.3610082074        1.9741967135
 H          3.8746380321       -1.0215040560       -1.4667713832
 H          4.1300703106       -1.0478343305        2.1415192380
 H          2.2637192999       -1.8055563306        3.5933786468
 H          0.1171436939       -2.4829813303        2.5820365838
 C         -0.5595097573       -2.5304275894       -0.0184590889
 H         -1.0883054235       -3.2148650974        0.6635273741
 C         -0.4782004249       -3.2363131754       -1.3628290298
 C         -1.7006380436       -3.3637040507       -2.2210952024
 C         -0.5463551167       -2.5270563148       -2.6805161446
 H          0.0652733033       -2.9019181731       -3.4887738715
 H         -0.6519497101       -1.4540926254       -2.6776821957
 H         -2.5936532826       -2.8572431416       -1.8845205286
 H         -1.8908263781       -4.3027771186       -2.7185061487
 H          0.1725635503       -4.1048225468       -1.3167153265
 O         -3.1105102873       -2.3794695314        1.1566907277
