  62
        -98.93402182
 C         -1.7122654245       -0.6055938871       -0.0085554557
 C         -2.8890358888       -1.0780494699        0.6305825098
 C         -4.1715801953       -0.6159332933        0.0806205336
 C         -4.1658422776        0.2330178859       -0.9624235119
 C         -5.3803542959        0.8591924848       -1.5864923986
 C         -5.8896562033        2.0155346564       -0.7025930180
 C         -7.2670599484        1.7765247429       -0.0836363896
 H         -7.4212542571        2.5449255720        0.6769868676
 H         -8.0304892222        1.9163333188       -0.8519484182
 C         -7.4853756112        0.3982030767        0.5479252600
 H         -8.3851206718        0.4696070974        1.1627930636
 H         -7.7001510988       -0.3331804738       -0.2326871021
 C         -6.3366736065       -0.1322065639        1.4156007455
 H         -6.7704440525       -0.6351857123        2.2822781818
 H         -5.7311679237        0.6904591799        1.7967574822
 C         -5.4236124367       -1.1556488139        0.7149377586
 H         -5.0719670046       -1.8756485943        1.4597897719
 H         -6.0013004111       -1.7095146066       -0.0304154121
 H         -5.9345632186        2.9321195352       -1.2928392709
 H         -5.1581102805        2.1891804070        0.0895337758
 H         -6.1554921447        0.1074339285       -1.7182024087
 H         -5.0856790775        1.2330273685       -2.5673463691
 O         -3.0214873787        0.6886152813       -1.5302307931
 C         -1.7677836475        0.2911641869       -1.0768396633
 O         -0.8283436784        0.8043545636       -1.7114025446
 O         -2.8661023363       -1.8566114140        1.6205922306
 C         -0.3853050685       -1.0769683311        0.5624412464
 C          0.5243437117        0.0922783594        0.8318830684
 C          0.3974117778        0.8140031269        2.0142946490
 C          1.2259371670        1.8888698698        2.2830838923
 C          2.1939909583        2.2726845200        1.3711061719
 C          2.3144417620        1.5689024148        0.1820275704
 C          1.4974598440        0.4781234715       -0.0770022820
 H          1.5997705855       -0.0575999039       -1.0079355326
 N          3.3201844320        1.9471616410       -0.7429537787
 S          4.8493872204        1.4203686433       -0.3081334781
 O          5.2346521228        2.0843990580        0.9107214458
 O          5.6977363004        1.6399052656       -1.4574238679
 C          4.6421734832       -0.3271643594       -0.0149782078
 C          4.7947825495       -1.2030624408       -1.0711000508
 C          4.5318637300       -2.5484329510       -0.8697406737
 C          4.1088601488       -2.9894697752        0.3749561821
 C          3.9572380706       -2.0964011497        1.4248541044
 C          4.2236621239       -0.7505595673        1.2307081637
 H          4.1176244637       -0.0255916933        2.0211679686
 H          3.6239455112       -2.4415091033        2.3905058996
 H          3.8948213081       -4.0357651005        0.5279980762
 H          4.6503243441       -3.2464938766       -1.6830355344
 H          5.1248253924       -0.8178228590       -2.0227586740
 H          3.1155187507        1.6342958405       -1.6822315017
 H          2.8609079420        3.0971106540        1.5647812288
 H          1.1178751670        2.4328011829        3.2092509839
 H         -0.3621306969        0.5213364480        2.7260431774
 H         -0.6565844393       -1.5272720609        1.5304882947
 C          0.3104609374       -2.1672080444       -0.2404758716
 C         -0.4788818883       -3.2767824134       -0.8656013694
 C          0.2260424718       -2.2783135937       -1.7318942358
 H          1.1092381965       -2.5977451534       -2.2660449310
 H         -0.3646682277       -1.5499323408       -2.2648410886
 H         -0.0898913089       -4.2820990712       -0.8129831283
 H         -1.5554809433       -3.2188596079       -0.7959363394
 H          1.2614423457       -2.4409197350        0.2070532903
