  62
        -98.94505487
 C          1.5342295446        0.7744419495       -0.4558364723
 C          2.8291868752        1.3411213600       -0.4990208090
 C          3.9423209012        0.3878081610       -0.6036985945
 C          3.6759212744       -0.9299170594       -0.6657968900
 C          4.7150557333       -2.0115375265       -0.7212333163
 C          5.0890560266       -2.4950917378        0.6868435216
 C          5.4129489650       -1.3635814655        1.6623041245
 H          4.5083038176       -0.7782381171        1.8420752237
 H          5.6921479535       -1.8229801231        2.6130199451
 C          6.5372590039       -0.4272968447        1.1977896365
 H          7.2121919169       -0.2466551868        2.0371706980
 H          7.1202504795       -0.9092089516        0.4120901299
 C          6.0610783130        0.9413704463        0.7072945957
 H          6.9350216936        1.5914832381        0.6124684061
 H          5.4011675967        1.3893818493        1.4546785891
 C          5.3351820466        0.9508935615       -0.6440570919
 H          5.2274389273        1.9942187363       -0.9552433402
 H          5.9403256027        0.4316392006       -1.3900530568
 H          5.9475239305       -3.1643477155        0.6056811731
 H          4.2498262374       -3.0653748528        1.0914299870
 H          5.5980340212       -1.6347685279       -1.2337543595
 H          4.3077936213       -2.8507780435       -1.2873210914
 O          2.4167188124       -1.4356181037       -0.6370963011
 C          1.3126885674       -0.6019661948       -0.5205692045
 O          0.2200833378       -1.1947285955       -0.4882528097
 O          3.0445359693        2.5827041876       -0.4469634155
 C          0.3288658659        1.6894016018       -0.3448869554
 C         -0.5090005576        1.3012697769        0.8473417898
 C          0.1131338641        1.0947165558        2.0764266472
 C         -0.6175912515        0.7078623006        3.1822284904
 C         -1.9838519928        0.5070922358        3.0861185548
 C         -2.6172148366        0.7285365727        1.8699195839
 C         -1.8823184505        1.1384768832        0.7651195212
 H         -2.4030000798        1.3286975452       -0.1572037935
 N         -4.0004304501        0.5529491147        1.7449449364
 S         -4.6965547324        0.1270571733        0.2904494980
 O         -4.7668595695        1.2757283974       -0.5784980158
 O         -5.9707972398       -0.4475998505        0.6683543123
 C         -3.6619601103       -1.1299457685       -0.4368966561
 C         -3.3406020504       -2.2427356446        0.3128464011
 C         -2.5566635751       -3.2304673985       -0.2584723857
 C         -2.1119446817       -3.0920905638       -1.5631256688
 C         -2.4477564574       -1.9717723330       -2.3045972850
 C         -3.2291238690       -0.9791424390       -1.7376209322
 H         -3.5059870318       -0.0869866455       -2.2776455371
 H         -2.0942265575       -1.8631401526       -3.3180273637
 H         -1.4928200241       -3.8580086630       -2.0026280962
 H         -2.2864588559       -4.1014781844        0.3167291817
 H         -3.7021168017       -2.3263151439        1.3251423704
 H         -4.4583473431        0.1224189351        2.5337843672
 H         -2.5542052679        0.1881300349        3.9449069120
 H         -0.1193802295        0.5486194355        4.1268029225
 H          1.1831292649        1.2351507863        2.1497631935
 H          0.7343992368        2.6981180329       -0.1756463118
 C         -0.4460079922        1.6847938085       -1.6460871394
 C         -1.2534820122        2.8798987548       -2.0527004011
 C          0.0154384565        2.5500073731       -2.7785710320
 H         -0.0490422575        2.1620553560       -3.7840553783
 H          0.8806740530        3.1733617248       -2.6059758076
 H         -2.1969676526        2.7216024084       -2.5540092531
 H         -1.2518344915        3.7325884591       -1.3903996130
 H         -0.8298199098        0.7003357425       -1.8919475916
