  62
        -98.94333305
 C         -1.2847125965       -1.2011499813        0.2494595201
 C         -2.1828414187       -0.7593476462        1.2529570310
 C         -2.8367697524        0.5316902022        1.0111243707
 C         -2.5102344298        1.2485147006       -0.0792743991
 C         -3.0693590390        2.5947999959       -0.4520097681
 C         -4.4104231086        2.5288134530       -1.1958371669
 C         -5.6142352320        2.1430687325       -0.3353367801
 H         -5.6526285026        2.7861324677        0.5445676386
 H         -6.5094904790        2.3471359348       -0.9261303284
 C         -5.6363829673        0.6709543542        0.0995357730
 H         -6.6359923341        0.2593562154       -0.0574531106
 H         -4.9523554441        0.0953939890       -0.5285580991
 C         -5.2765046258        0.4375636617        1.5670262478
 H         -6.0317994723        0.8986360962        2.2073894200
 H         -5.2885599173       -0.6391497208        1.7562850681
 C         -3.8976783269        0.9753042097        1.9723918123
 H         -3.6470351931        0.5702307639        2.9560816150
 H         -3.9233284248        2.0628403791        2.0387620824
 H         -4.5974294057        3.5183145526       -1.6192524279
 H         -4.3161519350        1.8245694737       -2.0255462581
 H         -3.1795350065        3.2074614894        0.4432388868
 H         -2.3359443889        3.0652538955       -1.1094141116
 O         -1.5899225439        0.8242304202       -0.9822801812
 C         -0.9629260104       -0.4094148476       -0.8558511854
 O         -0.1599054754       -0.6599174987       -1.7704619431
 O         -2.4180618169       -1.4084399770        2.3078877721
 C         -0.5892715563       -2.5347646725        0.4608195536
 C          0.8901115471       -2.3662206120        0.2260414535
 C          1.6081180076       -3.0548147661       -0.7413223585
 C          2.9562451890       -2.7994174177       -0.9272821640
 C          3.6159538326       -1.8605804925       -0.1560482383
 C          2.9065392029       -1.1701556303        0.8183950031
 C          1.5595113510       -1.4305008570        1.0063068337
 H          1.0065501992       -0.8830846478        1.7606758862
 N          3.5652684835       -0.2006845536        1.6064145942
 S          4.2061879494        1.1125798853        0.7861717145
 O          5.3320636140        0.6705405410        0.0037774656
 O          4.4863434872        2.0968006122        1.8079206304
 C          2.9026130838        1.6917497863       -0.2823994591
 C          2.8244174513        1.2223721467       -1.5774623815
 C          1.7841327496        1.6546043965       -2.3832812089
 C          0.8456819789        2.5422971345       -1.8825651689
 C          0.9332028779        2.9984516540       -0.5765809608
 C          1.9684864326        2.5664333731        0.2355345380
 H          2.0764722175        2.9048596403        1.2541032721
 H          0.1963428951        3.6831193557       -0.1866047723
 H          0.0350930494        2.8703262318       -2.5140566940
 H          1.7003293559        1.2876975451       -3.3929338816
 H          3.5740617781        0.5342708816       -1.9321998880
 H          2.9962477429        0.1359688424        2.3707848470
 H          4.6601705801       -1.6362732771       -0.3026695490
 H          3.5000225521       -3.3353048299       -1.6904649305
 H          1.1070492642       -3.7713047807       -1.3709707528
 H         -0.7405416706       -2.7542997679        1.5313945455
 C         -1.2016011464       -3.6961546945       -0.3064661693
 C         -2.6571637831       -3.6969295933       -0.6641315980
 C         -1.6215412712       -3.5819692347       -1.7400710109
 H         -1.4629203095       -4.4317022760       -2.3880514561
 H         -1.4840127227       -2.6298072238       -2.2271252166
 H         -3.2087135734       -4.6206878296       -0.5728755783
 H         -3.2338123437       -2.8185266641       -0.4125388825
 H         -0.7845579934       -4.6494541712        0.0038830633
