  62
        -98.93833504
 C         -2.2404894089       -1.1080224565        0.2026983223
 C         -2.3949013952        0.0109245252       -0.6477292678
 C         -3.3247787835        1.0616144815       -0.1896902449
 C         -3.9282193606        0.9351010639        1.0040577335
 C         -4.9305826758        1.8628831300        1.6327197745
 C         -6.3655497844        1.4132212656        1.3089955770
 C         -6.9306981335        1.9572138669       -0.0025002342
 H         -7.8885620685        1.4610062100       -0.1743464681
 H         -7.1300709294        3.0251055532        0.1084270060
 C         -6.0426842082        1.7513057895       -1.2322621674
 H         -5.6246364717        0.7431459413       -1.2197317930
 H         -6.6750508363        1.8280738364       -2.1188212252
 C         -4.9111104421        2.7846071710       -1.3386960908
 H         -5.0989086203        3.5939556550       -0.6334583189
 H         -4.9234415519        3.2335885787       -2.3341151045
 C         -3.4952603698        2.2301715172       -1.1226372034
 H         -3.0923512516        1.8827619987       -2.0792958109
 H         -2.8394386892        3.0414702324       -0.7874783353
 H         -6.3770641910        0.3204425166        1.2905149861
 H         -7.0235568786        1.7331354701        2.1193681634
 H         -4.7799898550        1.7955604022        2.7122540727
 H         -4.7577428237        2.8881345372        1.3192555483
 O         -3.7262166277       -0.1422392942        1.8105898186
 C         -2.8988236514       -1.1806394089        1.4349703253
 O         -2.8305451071       -2.1063699011        2.2676447254
 H          0.2625375474       -0.5314066597       -1.4133046844
 C          0.7769952837       -1.0191334632       -0.5987560116
 C          0.0991119376       -1.9547973166        0.1695533477
 C          0.7640900573       -2.5443886707        1.2384579033
 C          2.0752597616       -2.2069489380        1.5246588524
 C          2.7475445900       -1.2740098123        0.7553574244
 C          2.0867327662       -0.6691504817       -0.3054844557
 N          2.7550189511        0.2931683043       -1.0856910971
 S          3.4713570684        1.5762189713       -0.2710641828
 O          2.8072767170        1.8459569857        0.9841694198
 O          3.5120432213        2.6631570380       -1.2251320140
 C          5.1337121697        1.0087553212        0.0247078099
 C          5.6380644129        0.9877664453        1.3101902333
 C          6.9373280164        0.5486078511        1.5131954574
 C          7.7049252852        0.1413238374        0.4328575814
 C          7.1843476758        0.1710775229       -0.8524654876
 C          5.8869004714        0.6098977233       -1.0622808490
 H          5.4457051457        0.6524027749       -2.0440355162
 H          7.7843561614       -0.1461093298       -1.6900762148
 H          8.7149160813       -0.2012118499        0.5937114096
 H          7.3436146284        0.5253289361        2.5116620948
 H          5.0018694254        1.3086902043        2.1197957889
 H          2.1915569426        0.6373632302       -1.8509442950
 H          3.7667063896       -1.0022573612        0.9771756536
 H          2.5787988541       -2.6733133184        2.3577480731
 H          0.2372881057       -3.2564387695        1.8572913332
 C         -1.3430777377       -2.2938463945       -0.1234326772
 H         -1.6456564007       -3.0885207574        0.5713698901
 C         -1.5232707765       -2.8039232473       -1.5396980509
 C         -1.0992167227       -4.2032893390       -1.8646354924
 C         -2.5557445974       -3.8541920243       -1.8122302844
 H         -3.1102708173       -3.8029090626       -2.7372427809
 H         -3.1371784283       -4.2125805512       -0.9749520802
 H         -0.6507527294       -4.3946146963       -2.8272700035
 H         -0.6930428371       -4.8007177747       -1.0625372007
 H         -1.3796004586       -2.0441464251       -2.2960492546
 O         -1.8030487513        0.1517319374       -1.7530874562
