  62
        -98.93949960
 C         -2.2653661324       -0.5555714871       -0.2966243947
 C         -3.3863787434       -0.7717889524        0.5490062764
 C         -4.1908957981        0.4081421657        0.8869187792
 C         -3.8219159685        1.6102596043        0.4091363866
 C         -4.5729922185        2.8904797673        0.6293376230
 C         -5.5944962119        3.1334434440       -0.4905364183
 C         -6.4805790835        1.9242546683       -0.7898951502
 H         -7.1803727328        2.2199913596       -1.5744584515
 H         -5.8620066301        1.1213095223       -1.1974217869
 C         -7.2630617023        1.3954434525        0.4203558788
 H         -7.2962951536        2.1558437805        1.2014301704
 H         -8.2929320239        1.2007514422        0.1136353344
 C         -6.7193746949        0.0911275263        1.0066974890
 H         -6.5968779183       -0.6462458330        0.2092970717
 H         -7.4622289967       -0.3032402165        1.7051226343
 C         -5.3916966428        0.2031268235        1.7668912567
 H         -5.4612547150        0.9959789703        2.5144263829
 H         -5.2244408403       -0.7449892338        2.2862273324
 H         -6.2185816050        3.9837940179       -0.2100780550
 H         -5.0529435423        3.3950024823       -1.4025396441
 H         -5.0772044866        2.8479005222        1.5928022736
 H         -3.8557534156        3.7127983213        0.6403195641
 O         -2.7337142515        1.7845891938       -0.3795833706
 C         -1.9332297695        0.7172799283       -0.7601773042
 O         -0.9844376146        1.0543215317       -1.4973846459
 H          0.7186979160       -0.1408378335       -0.7157693913
 C          0.8379471061       -0.9328962824        0.0087255990
 C         -0.1843805660       -1.8562827911        0.1766012268
 C         -0.0251114913       -2.8569471045        1.1279455794
 C          1.1279481331       -2.9270871919        1.8902389135
 C          2.1410923143       -1.9998563431        1.7260569186
 C          1.9893767057       -0.9924697938        0.7815699942
 N          2.9930468030       -0.0119350759        0.6253176105
 S          4.5644473135       -0.5610892192        0.3366937589
 O          4.5926871826       -1.4125108776       -0.8333185022
 O          5.0748477292       -1.1461782516        1.5506463345
 C          5.4027557380        0.9750824513        0.0059531698
 C          5.8058815708        1.7530503319        1.0743284784
 C          6.4390872759        2.9595147091        0.8220502298
 C          6.6564054782        3.3656442373       -0.4863170717
 C          6.2462428036        2.5736137078       -1.5480718594
 C          5.6109570283        1.3663722011       -1.3025697672
 H          5.2829847130        0.7149614226       -2.0969980246
 H          6.4185284376        2.8907330179       -2.5640606019
 H          7.1512102956        4.3042280374       -0.6802262937
 H          6.7615332531        3.5777978265        1.6442547583
 H          5.6243053406        1.3927132062        2.0733259535
 H          2.7346184539        0.6521082092       -0.0938938756
 H          3.0459541963       -2.0481707882        2.3093682696
 H          1.2391829729       -3.7114185898        2.6238577004
 H         -0.8182104429       -3.5759248983        1.2749073864
 C         -1.4415145495       -1.7808652358       -0.6579482564
 H         -2.0717886770       -2.6375032355       -0.3835964290
 C         -1.1250802064       -1.8763117740       -2.1377745114
 C         -0.7539987253       -3.2077810994       -2.7157628832
 C         -2.0777598902       -2.5886437903       -3.0482504515
 H         -2.2307999138       -2.1959585128       -4.0422665127
 H         -2.9657135171       -3.0173607672       -2.6068241899
 H          0.0066841099       -3.2432801555       -3.4805604434
 H         -0.7442231234       -4.0563678659       -2.0484522985
 H         -0.6262205951       -1.0005975035       -2.5317247790
 O         -3.7024477046       -1.9070022745        0.9949888548
