  62
        -98.94141101
 C          2.6558477412        1.3397421591        0.0017228516
 C          2.7418424410        0.2240824599       -0.8652010295
 C          4.0102507008       -0.5183451204       -0.8263087300
 C          4.9960854608       -0.1005704315       -0.0114316194
 C          6.3128264706       -0.7972352620        0.1699715302
 C          6.2483744601       -1.8115755031        1.3205161491
 C          5.0427252399       -2.7491195628        1.2517004580
 H          5.1187856996       -3.4390956336        2.0949200873
 H          4.1283147600       -2.1683337227        1.3943877784
 C          4.9336528899       -3.5487971114       -0.0541035528
 H          5.8948192100       -3.5501232612       -0.5694305326
 H          4.6947048496       -4.5861108716        0.1895774261
 C          3.8468867002       -3.0561809202       -1.0117095325
 H          3.7098412302       -3.8130135294       -1.7889110333
 H          2.8982371001       -2.9647018505       -0.4757091426
 C          4.1323453407       -1.7234878196       -1.7155566711
 H          5.1166954108       -1.7591789994       -2.1866976210
 H          3.3797579109       -1.5950923886       -2.4991688411
 H          6.2007615801       -1.2625172341        2.2637345997
 H          7.1683696500       -2.3988347534        1.3151203487
 H          6.5836062006       -1.2992156312       -0.7567150803
 H          7.0702565207       -0.0465545024        0.4014718310
 O          4.8837991909        0.9901473777        0.7888361717
 C          3.7102405711        1.7245007380        0.8301336822
 O          3.7286556312        2.6811242672        1.6307020532
 H         -0.9839255086        1.5385579413       -1.2340126888
 C         -0.8807000389        1.0325505603       -0.2873403893
 C          0.2435292511        1.2464410592        0.4894165411
 C          0.3515309307        0.5743724180        1.7053376405
 C         -0.6345482796       -0.3002538821        2.1136397794
 C         -1.7540712795       -0.5216089211        1.3277375190
 C         -1.8759926592        0.1451808402        0.1172759696
 N         -2.9995808891       -0.0157813787       -0.7001704307
 S         -4.0896777494       -1.2783588284       -0.7443575022
 O         -3.6184099498       -2.4152929993        0.0077983468
 O         -4.3830940192       -1.5001030069       -2.1424558924
 C         -5.5314700693       -0.5820534688        0.0439160383
 C         -5.4786159295       -0.2571593602        1.3853789286
 C         -6.5975466294        0.2963246095        1.9869223990
 C         -7.7468254793        0.5162111806        1.2426747490
 C         -7.7848010091        0.1875262619       -0.1033592614
 C         -6.6678259591       -0.3649328378       -0.7102772417
 H         -6.6531201890       -0.6353364667       -1.7535158620
 H         -8.6782494290        0.3597020027       -0.6817800313
 H         -8.6159783292        0.9462856003        1.7148712392
 H         -6.5680521796        0.5549307785        3.0333057292
 H         -4.5714886996       -0.4362892109        1.9383652786
 H         -2.9266059888        0.4318751222       -1.6000402103
 H         -2.4970175598       -1.2419258812        1.6262203682
 H         -0.5335871699       -0.8236934031        3.0529269289
 H          1.2292057506        0.7396881872        2.3162740108
 C          1.3747214814        2.1534662094        0.0692725622
 H          1.5287706014        2.8979818885        0.8631591830
 C          1.1381650618        2.8778621907       -1.2386598471
 C          0.2899894021        4.1128240110       -1.2689323560
 C          1.7739391522        4.2177411008       -1.4493721957
 H          2.1606047224        4.4559642017       -2.4289575154
 H          2.3639245221        4.6198296998       -0.6385935352
 H         -0.3424073377        4.2849216120       -2.1268768760
 H         -0.1315886480        4.4510875302       -0.3346253158
 H          1.0999597118        2.2068212916       -2.0891674078
 O          1.8116839911       -0.1361494890       -1.6341307100
