  62
        -98.93910161
 C         -2.3001263500       -0.8098801789        0.6261093297
 C         -3.4480816799       -0.9649114889       -0.1898005705
 C         -4.5793738899       -0.0740395888        0.1136920793
 C         -4.4692994099        0.8293976513        1.1032917192
 C         -5.5225693199        1.8318029015        1.4749905589
 C         -5.3397520597        3.1467041814        0.7042185887
 C         -5.1570274395        2.9601997411       -0.8020159412
 H         -5.0689421494        3.9550757111       -1.2439693014
 H         -4.2117035895        2.4435019610       -0.9843065210
 C         -6.2952005295        2.1934841511       -1.4898348612
 H         -7.1791159596        2.1911024013       -0.8510877713
 H         -6.5621105194        2.7155766710       -2.4110534214
 C         -5.9462274596        0.7555370610       -1.8774165610
 H         -6.7300021895        0.3828393910       -2.5421651110
 H         -5.0083877895        0.7448384909       -2.4382606109
 C         -5.8234346398       -0.2369445888       -0.7145736808
 H         -5.7688113898       -1.2424514589       -1.1415101907
 H         -6.7134709598       -0.1785320187       -0.0850326910
 H         -6.2089346097        3.7797839015        0.8918628685
 H         -4.4563567897        3.6569813213        1.0953253388
 H         -5.4414759500        2.0335550516        2.5444186689
 H         -6.5046461399        1.4110020115        1.2678909188
 O         -3.3486910500        0.9598073514        1.8592953293
 C         -2.2501882800        0.1467347413        1.6453178895
 O         -1.2997654001        0.3628413113        2.4262785796
 O         -3.5515151398       -1.7971915390       -1.1293102403
 C         -1.0510607600       -1.6651164590        0.4859048799
 C         -0.1413572799       -1.1793144492       -0.6177694400
 C         -0.5797565397       -1.0753628094       -1.9334338101
 C          0.2838390705       -0.6440872496       -2.9235873201
 C          1.5950457804       -0.3189248597       -2.6256608100
 C          2.0480582203       -0.4340838695       -1.3158606299
 C          1.1757459001       -0.8567788993       -0.3227521999
 H          1.5294772900       -0.9197826892        0.6952710801
 N          3.3945325803       -0.1712109496       -1.0104026698
 S          3.8377631301        0.4165863206        0.5058513702
 O          3.7145614199       -0.6450300992        1.4727825803
 O          3.1308890402        1.6445464707        0.7966404599
 C          5.5642618702        0.7468597105        0.2070106804
 C          6.4282819601       -0.3291200296        0.1234897206
 C          7.7702438202       -0.0930333698       -0.1274983793
 C          8.2242914303        1.2078405502       -0.2888623894
 C          7.3462011204        2.2772327303       -0.1997733396
 C          6.0016797703        2.0478225004        0.0491148502
 H          5.2835308504        2.8476803905        0.1334591000
 H          7.7026235504        3.2873288802       -0.3221242198
 H          9.2696597403        1.3892536401       -0.4826193493
 H          8.4562038201       -0.9219401598       -0.1949972191
 H          6.0316130800       -1.3206963596        0.2658715807
 H          3.8676574604        0.3363126803       -1.7460372198
 H          2.2666683506        0.0158218002       -3.4016597699
 H         -0.0687883894       -0.5588013997       -3.9404689701
 H         -1.6011368197       -1.3315059693       -2.1687687702
 H         -0.5062048201       -1.5460013489        1.4331892400
 C         -1.3532063101       -3.1401589090        0.2943583901
 C         -0.2978269602       -4.1431342590        0.6450854304
 C         -1.5247526403       -4.0157641988        1.4967251702
 H         -2.2645048904       -4.8012310888        1.4602836102
 H         -1.4249775204       -3.5541164287        2.4688936502
 H         -0.1927196102       -5.0186139091        0.0230331705
 H          0.6352508597       -3.7686428190        1.0401670804
 H         -1.9790815900       -3.3418013891       -0.5646300699
