  62
        -98.93736126
 C          1.9577242487        1.0152189149        0.0123978679
 C          2.3320904727        0.0464108656        0.9706256701
 C          2.4841250231       -1.3267629640        0.4746224745
 C          2.2324365862       -1.5965635196       -0.8190626295
 C          2.2624957907       -2.9512337962       -1.4772955797
 C          3.6334065021       -3.6520036982       -1.5450030255
 C          3.9066968142       -4.6207316629       -0.3878556548
 H          2.9523313643       -4.9550567160        0.0208628540
 H          4.4073629165       -5.5068961787       -0.7829997555
 C          4.7853007905       -4.0779120884        0.7431162858
 H          4.6912726942       -4.7557410159        1.5941210441
 H          5.8293299037       -4.0939652599        0.4225588444
 C          4.4717069367       -2.6554195063        1.2070268789
 H          5.0230515751       -2.4680096726        2.1304876397
 H          4.8454275402       -1.9380131153        0.4726901243
 C          2.9751249822       -2.3680937846        1.4381293499
 H          2.3858715179       -3.2798238987        1.3477725379
 H          2.8219040375       -1.9604197464        2.4396218268
 H          3.6500610763       -4.2205749334       -2.4760864667
 H          4.4209619463       -2.9018808409       -1.6097883797
 H          1.5453741727       -3.5984812007       -0.9664350314
 H          1.8934888226       -2.7858295345       -2.4917106695
 O          1.8658737206       -0.6345760244       -1.7097819843
 C          1.7109086544        0.6853203486       -1.3202714515
 O          1.3700509879        1.4566357225       -2.2382404359
 O          2.5216775063        0.3157072836        2.1892267971
 C          1.7294321835        2.4478879494        0.4574805415
 C          0.3039281465        2.8451575716        0.1602650932
 C         -0.0531687766        4.0754837002       -0.3758993767
 C         -1.3788324308        4.3561587354       -0.6596810653
 C         -2.3682201612        3.4191657100       -0.4282632886
 C         -2.0230526028        2.1924028367        0.1290175772
 C         -0.7003297695        1.9258032767        0.4370356839
 H         -0.4448039606        0.9677953033        0.8678900260
 N         -3.0038324691        1.2219414293        0.4037382797
 S         -2.5805921190       -0.4050658723        0.2394293473
 O         -1.9227583073       -0.8370544019        1.4485090197
 O         -1.8645495691       -0.6245076606       -0.9972186680
 C         -4.2051052300       -1.1375288687        0.1560951278
 C         -4.9206165483       -1.2898573195        1.3290507504
 C         -6.1976741238       -1.8245691335        1.2699067984
 C         -6.7353256908       -2.1956585654        0.0461721019
 C         -6.0047539139       -2.0386644969       -1.1219581828
 C         -4.7272997557       -1.5025363819       -1.0700765642
 H         -4.1185301448       -1.3667157772       -1.9498155397
 H         -6.4235432359       -2.3304895736       -2.0715305917
 H         -7.7291790411       -2.6121946138        0.0026873866
 H         -6.7676150435       -1.9501762627        2.1762273282
 H         -4.4562505693       -0.9955236250        2.2557028959
 H         -3.8835237949        1.4190680310       -0.0547722465
 H         -3.3975494055        3.6305437547       -0.6748643243
 H         -1.6421567663        5.3127878450       -1.0848680216
 H          0.7078220469        4.8092097773       -0.5855091479
 H          1.8670554247        2.4417849606        1.5496849686
 C          2.7572548046        3.3724764483       -0.1608071126
 C          3.2014085294        4.6067818940        0.5643771508
 C          4.1274487748        3.4353732459        0.4425091156
 H          4.9781661300        3.5130265884       -0.2176425345
 H          4.3084302779        2.8298686812        1.3187179645
 H          3.4206478926        5.4923588009       -0.0128101071
 H          2.7610918456        4.8045117292        1.5299130191
 H          2.6830823672        3.4075141055       -1.2420677796
