  62
        -98.92863138
 C          1.8442615081        1.6163543829        0.2065270406
 C          1.6089099494        0.2527580078       -0.0863722638
 C          2.7335783261       -0.6622826578        0.1686151456
 C          3.8906933597       -0.1820731580        0.6566027726
 C          5.1182998459       -0.9762909638        1.0173653558
 C          5.8417157094       -1.6798858071       -0.1470519359
 C          5.4155972514       -3.1364976515       -0.3682005325
 H          6.3017522830       -3.7291611794       -0.6044066417
 H          5.0153181539       -3.5310967435        0.5664371210
 C          4.4071892958       -3.3722998344       -1.4967998274
 H          4.9289322861       -3.3308000737       -2.4557060963
 H          4.0088743699       -4.3828654092       -1.3838668734
 C          3.2412426004       -2.3858130246       -1.5682034258
 H          2.5059990988       -2.7765686400       -2.2747986321
 H          3.5885360756       -1.4357932437       -1.9815343199
 C          2.5542172484       -2.1016911659       -0.2183645368
 H          1.4790522545       -2.2681711219       -0.3105641773
 H          2.9429779738       -2.7598258237        0.5572547847
 H          6.9066695363       -1.6693279046        0.0904657771
 H          5.7098305889       -1.1006029840       -1.0606324580
 H          4.8477899834       -1.7154819067        1.7746932169
 H          5.8009458337       -0.2601876026        1.4793646268
 O          4.0728524941        1.1395196607        0.9304099500
 C          3.0693697238        2.0640894904        0.7045771201
 O          3.3798307891        3.2388590597        0.9899252566
 O          0.5205222651       -0.1954087524       -0.5255105478
 C          0.7731227284        2.6770559926       -0.0229851845
 C         -0.5011409790        2.2561041035        0.6671597828
 C         -0.4907072786        2.3440195817        2.0611621260
 C         -1.5861914309        1.9745813745        2.8146870081
 C         -2.7336069532        1.5095332752        2.1959617521
 C         -2.7602024638        1.4138541028        0.8113348340
 C         -1.6501909386        1.7790624623        0.0568582099
 H         -1.7161610039        1.6457111628       -1.0061537183
 N         -3.9300756898        0.9933382447        0.1524351578
 S         -3.9271711749       -0.2509590185       -0.9665077973
 O         -3.0116112967        0.0443642274       -2.0358849807
 O         -5.3185295504       -0.3967100947       -1.3391787559
 C         -3.4202498748       -1.6933204771       -0.0471017046
 C         -2.0844130680       -1.8833200444        0.2433722651
 C         -1.7239713683       -2.9821814193        1.0095777347
 C         -2.6921818181       -3.8615563320        1.4685032429
 C         -4.0298482154       -3.6527694688        1.1679315651
 C         -4.3996499835       -2.5561392387        0.4070713355
 H         -5.4258391529       -2.3555418786        0.1442586742
 H         -4.7822344317       -4.3379309728        1.5242524701
 H         -2.4013796808       -4.7140051013        2.0622044579
 H         -0.6825367924       -3.1397840604        1.2429944232
 H         -1.3456981887       -1.1898526448       -0.1275770053
 H         -4.7212708564        0.8756260804        0.7697626805
 H         -3.5985627117        1.2280572686        2.7773780619
 H         -1.5491298674        2.0510741907        3.8908524063
 H          0.4039896369        2.7077180863        2.5490733877
 H          1.1385205759        3.5611070811        0.5252288823
 C          0.7837181307        3.0954928257       -1.4866704536
 C          0.1994587830        2.3339177798       -2.6359079657
 C         -0.3834804895        3.6587797636       -2.2391518367
 H         -0.2056552783        4.5051997684       -2.8863416902
 H         -1.3479544257        3.6748537322       -1.7574150654
 H          0.7802731518        2.2872731917       -3.5470022728
 H         -0.3487928520        1.4259530919       -2.4421348507
 H          1.7424312139        3.5665905265       -1.6987376277
