  62
        -98.94051593
 C         -1.8219583043        0.1462084101        0.9724795080
 C         -3.1858038979        0.3837604725        1.2809788784
 C         -4.1694165068       -0.3142009682        0.4459176026
 C         -3.7492247396       -1.1142063355       -0.5506096017
 C         -4.6262544741       -1.9223147737       -1.4679705080
 C         -5.1704606279       -1.1349593707       -2.6676103938
 C         -6.2614968057       -0.1163398035       -2.3353964798
 H         -6.7015196269        0.2023820954       -3.2824401394
 H         -7.0487420094       -0.6032346600       -1.7588748897
 C         -5.7606598786        1.1238569319       -1.5818728853
 H         -6.1829708086        2.0224050670       -2.0375460476
 H         -4.6750102611        1.1961825028       -1.6815682174
 C         -6.1254081713        1.1545489788       -0.0975070512
 H         -5.6908973232        2.0552747186        0.3438104245
 H         -7.2104120789        1.2170268402        0.0116599434
 C         -5.6230842852       -0.0545795908        0.7024524628
 H         -5.7394882830        0.1666697304        1.7663345397
 H         -6.2158852950       -0.9369765164        0.4617720174
 H         -5.5829371531       -1.8599005558       -3.3731763692
 H         -4.3373261722       -0.6288290955       -3.1610013386
 H         -4.0101859528       -2.7412266045       -1.8456650781
 H         -5.4570485347       -2.3448108381       -0.9019596569
 O         -2.4333778000       -1.2973662738       -0.8319454506
 C         -1.4374350256       -0.6577886389       -0.1015534945
 O         -0.2871867216       -0.8947901635       -0.5104756022
 H          1.9810346065        0.5988163570        1.8504050036
 C          1.6242417931        1.2674243447        1.0825060438
 C          0.2652554407        1.4960640029        0.9348937944
 C         -0.1541995787        2.3555940236       -0.0779924196
 C          0.7557635784        2.9459585760       -0.9325161342
 C          2.1120041621        2.7095389661       -0.7858710215
 C          2.5427285466        1.8671782436        0.2281463846
 N          3.9271306346        1.6440489751        0.3899014705
 S          4.7443605634        0.7871434308       -0.7946852048
 O          6.1484178139        0.9200756519       -0.4764714562
 O          4.3329466363        1.2683572386       -2.0879559505
 C          4.2533652839       -0.9138479860       -0.5671756331
 C          2.9497420858       -1.2758167126       -0.8402853129
 C          2.5589905828       -2.5858274168       -0.6124613888
 C          3.4713867456       -3.5075043535       -0.1236052138
 C          4.7789644728       -3.1282673850        0.1424748548
 C          5.1744935521       -1.8186147650       -0.0748359448
 H          6.1780254541       -1.4775918309        0.1224768135
 H          5.4873211391       -3.8472119205        0.5219443645
 H          3.1601568349       -4.5253794275        0.0523738903
 H          1.5338931648       -2.8571387912       -0.8086372219
 H          2.2423082388       -0.5509819793       -1.2094786202
 H          4.1679968342        1.2608133695        1.2937945198
 H          2.8356831133        3.1490057703       -1.4523439622
 H          0.4094152403        3.5999293154       -1.7189627821
 H         -1.2132029943        2.5437251111       -0.1958965953
 C         -0.7783542964        0.8558971935        1.8160117729
 H         -1.3390548004        1.6649230594        2.3142871648
 C         -0.1878240294       -0.0050959338        2.9238802647
 C         -0.9114649311       -1.2103621737        3.4432291133
 C          0.3544731133       -1.3776755999        2.6602878790
 H          1.2443544236       -1.6901918335        3.1875242240
 H          0.2916900326       -1.7502944640        1.6502894977
 H         -1.8451794807       -1.4786848870        2.9706769793
 H         -0.8911022814       -1.3999248715        4.5059940325
 H          0.3354529706        0.5912221282        3.6654316809
 O         -3.5617034181        1.1448061943        2.2118494615
