  62
        -98.94737459
 C          2.5290712901        0.2304914250        0.0178702436
 C          2.2834732742        1.2786739580       -0.8991329504
 C          1.6954333092        2.4983727484       -0.3361114632
 C          1.4301757601        2.5631905387        0.9815185299
 C          0.8445512073        3.7422547174        1.7107365152
 C         -0.6871431829        3.8091300003        1.6432011902
 C         -1.2540495339        4.2589422025        0.2961990150
 H         -2.3068789360        4.5008453788        0.4541127947
 H         -0.7520045300        5.1724807671       -0.0250918288
 C         -1.1557745873        3.1973014549       -0.8074452814
 H         -0.9953732591        2.2139681554       -0.3584971777
 H         -2.1047844447        3.1365686096       -1.3464849069
 C         -0.0668887517        3.4493221319       -1.8506765287
 H         -0.3111179196        4.3449369575       -2.4275547825
 H         -0.0606473661        2.5961507898       -2.5346681334
 C          1.3462645250        3.6125856242       -1.2765052098
 H          1.4380820188        4.5758764263       -0.7743936665
 H          2.0570228972        3.5795492836       -2.1064446771
 H         -1.0192138025        4.5124342159        2.4106178433
 H         -1.0880382280        2.8228083336        1.8905528883
 H          1.1403045734        3.6364464241        2.7567311432
 H          1.2704439752        4.6666882672        1.3190981975
 O          1.6986403670        1.5400763046        1.8345224941
 C          2.2078568868        0.3381099505        1.3711352011
 O          2.3513990877       -0.5319694088        2.2526164077
 O          2.5485454799        1.1991599004       -2.1307886315
 C          3.0429150403       -1.1029412756       -0.4976904745
 C          2.0070609308       -2.1592786007       -0.1978161505
 C          2.2933245695       -3.3934144797        0.3696353078
 C          1.2681301684       -4.2686080345        0.6876560051
 C         -0.0534375373       -3.9273605647        0.4684397415
 C         -0.3476225366       -2.7031419286       -0.1231685340
 C          0.6821276621       -1.8504389078       -0.4787159755
 H          0.4443470538       -0.9036785453       -0.9424178969
 N         -1.6750955879       -2.3148499234       -0.3766295270
 S         -2.0242931829       -0.6610184990       -0.3476708407
 O         -1.7163734510       -0.1133562665       -1.6446423224
 O         -1.4022865614       -0.0289525768        0.7940430476
 C         -3.7933092653       -0.7125222836       -0.1298888452
 C         -4.6010889070       -0.8440340186       -1.2434204259
 C         -5.9741966217       -0.9168486439       -1.0699928874
 C         -6.5135334098       -0.8589307417        0.2065494064
 C         -5.6904859956       -0.7241583419        1.3146416897
 C         -4.3163922889       -0.6516357517        1.1479283884
 H         -3.6374088425       -0.5366311282        1.9780146328
 H         -6.1120291574       -0.6751471767        2.3056693975
 H         -7.5823641087       -0.9154232636        0.3390160838
 H         -6.6172279400       -1.0177194417       -1.9292831125
 H         -4.1348841267       -0.8753617335       -2.2143485581
 H         -2.3514691807       -2.8560841882        0.1441126292
 H         -0.8512280349       -4.5966864638        0.7522186128
 H          1.5021111353       -5.2218788960        1.1370483234
 H          3.3152153036       -3.6625534744        0.5812837293
 H          3.1214348273       -0.9874152665       -1.5894075312
 C          4.4127770048       -1.4155246367        0.0646187688
 C          5.3717117682       -2.2670627960       -0.7112190297
 C          5.6173443302       -0.7953330813       -0.5752571192
 H          6.4230671207       -0.4607751107        0.0605850401
 H          5.4495375454       -0.1643843073       -1.4359544436
 H          6.0144571829       -2.9441092123       -0.1692229561
 H          5.0454116775       -2.6386744768       -1.6707558344
 H          4.4065657093       -1.4994462190        1.1455663443
