  62
        -98.94107358
 C          2.1994174323        0.9819180374        0.6733006332
 C          2.2122673098        0.0931112454       -0.4306893641
 C          3.1129071657       -1.0628847468       -0.3048407153
 C          3.7948793829       -1.2663755437        0.8356821876
 C          4.7389299822       -2.4037752808        1.1161547417
 C          6.1627887714       -2.1737320227        0.5908764609
 C          6.3198327813       -2.2683106342       -0.9273812866
 H          7.3908101631       -2.3046683217       -1.1361557514
 H          5.8876514162       -3.2060132784       -1.2781973834
 C          5.7062494921       -1.0946172096       -1.7036669797
 H          6.4134123735       -0.7491322780       -2.4609703460
 H          5.5331949220       -0.2579407491       -1.0228733581
 C          4.3984546063       -1.4254850133       -2.4231636560
 H          4.0357951760       -0.5171955956       -2.9112675389
 H          4.5849539242       -2.1714438761       -3.1988160386
 C          3.2856173312       -1.9458896438       -1.5035155388
 H          2.3443458959       -1.9379265430       -2.0594730136
 H          3.4991834189       -2.9694460594       -1.1955747474
 H          6.8043073463       -2.9301056906        1.0488179796
 H          6.5071117020       -1.1949260270        0.9328507378
 H          4.7849377330       -2.5092584920        2.2023233020
 H          4.3377246181       -3.3259477129        0.6945357253
 O          3.6795704048       -0.4407318833        1.9104623885
 C          2.8983956588        0.7028207643        1.8501738987
 O          2.8947056033        1.3723116730        2.9031355882
 H         -0.3239207638        0.5014746892        1.7123339606
 C         -0.7694779612        0.9904194109        0.8533371080
 C         -0.0292827494        1.9435439317        0.1639835576
 C         -0.6035531128        2.5540479418       -0.9424282574
 C         -1.8824267079        2.2101057144       -1.3444999922
 C         -2.6159447806        1.2628148106       -0.6545411844
 C         -2.0487904611        0.6411530038        0.4503945239
 N         -2.7885240714       -0.3129092897        1.1710639114
 S         -3.5894379384       -1.5227755198        0.3268367327
 O         -3.7421856097       -2.6013638888        1.2800912244
 O         -2.9219535386       -1.8510604215       -0.9111385698
 C         -5.1900592583       -0.8158459846       -0.0053795847
 C         -5.9168789899       -0.3196924905        1.0591777236
 C         -7.1669546705        0.2275112560        0.8186042615
 C         -7.6679576369        0.2658638265       -0.4742043193
 C         -6.9279022464       -0.2404893635       -1.5315645848
 C         -5.6759483093       -0.7882296724       -1.2978704297
 H         -5.0615011163       -1.1876366339       -2.0892217499
 H         -7.3188799011       -0.2103285707       -2.5359081772
 H         -8.6411569705        0.6925836303       -0.6587451124
 H         -7.7455776899        0.6216055935        1.6384647581
 H         -5.4929980377       -0.3717451751        2.0480625888
 H         -2.2894584386       -0.7019776180        1.9579783441
 H         -3.6094164669        0.9894334600       -0.9701914970
 H         -2.3142747700        2.6859121565       -2.2117922901
 H         -0.0403594160        3.2779704075       -1.5077017155
 C          1.3599491020        2.2482621554        0.6692054248
 H          1.2723851235        2.5326330351        1.7311556301
 C          2.0173303257        3.4238181695       -0.0388038932
 C          3.5099213984        3.5472320536       -0.1015696434
 C          2.7273317152        3.2779616966       -1.3497574761
 H          2.6326393883        4.0732783710       -2.0746484160
 H          2.7727531137        2.2933076019       -1.7867786464
 H          3.9499135855        4.5239972840        0.0325470814
 H          4.0965520556        2.7437648156        0.3204938476
 H          1.4680493038        4.3469266493        0.1181707655
 O          1.5211892037        0.2436526279       -1.4701243796
