  62
        -98.93819106
 C         -1.7768817148       -0.2513479819       -0.8694348214
 C         -2.9325040330        0.5541708035       -1.0275976618
 C         -4.2148887986       -0.0982962337       -0.7082327080
 C         -4.2290109591       -1.3777256035       -0.2961363010
 C         -5.4563725592       -2.1349500230        0.1192671558
 C         -5.7110560691       -1.9966803818        1.6267874762
 C         -5.6605275085       -0.5548265621        2.1322566492
 H         -5.8848722690       -0.5768615273        3.2009451283
 H         -4.6415290124       -0.1754451494        2.0261297402
 C         -6.6327685004        0.4000764787        1.4255880506
 H         -7.4069390026       -0.1718441822        0.9127399163
 H         -7.1297972454        1.0147779198        2.1791210229
 C         -5.9714390936        1.3591226863        0.4340643753
 H         -5.1349544019        1.8682018874        0.9194814020
 H         -6.7038484491        2.1232446722        0.1600059781
 C         -5.4612810333        0.7268324776       -0.8669946574
 H         -6.2574737275        0.1378004772       -1.3266481684
 H         -5.1969596353        1.5403097451       -1.5491333564
 H         -6.6872731244       -2.4294644486        1.8530281784
 H         -4.9515443649       -2.5727162594        2.1603831913
 H         -6.3129471666       -1.7637858607       -0.4400766108
 H         -5.3068820935       -3.1891960196       -0.1196906837
 O         -3.1010666611       -2.1216215913       -0.1638778433
 C         -1.8582336401       -1.5784086121       -0.4372720531
 O         -0.9080391602       -2.3695047450       -0.2700723895
 H          2.1103419756       -0.1055500964       -0.1691995380
 C          1.5541781651        0.6161334803        0.4088007444
 C          0.2420082388        0.9049431708        0.0649193682
 C         -0.4684195671        1.8142099247        0.8413771881
 C          0.1284171999        2.4172755782        1.9335740910
 C          1.4475940829        2.1490275598        2.2545736957
 C          2.1678289620        1.2461466365        1.4821528219
 N          3.5087542494        0.9528824711        1.7673223502
 S          4.5981092187        0.8234724096        0.4986420226
 O          5.8822430527        1.1358499944        1.0876595651
 O          4.1941669536        1.6363544589       -0.6237201038
 C          4.5687067386       -0.9007852769        0.0604442554
 C          4.2881708100       -1.2745403126       -1.2386509246
 C          4.2836330947       -2.6221536921       -1.5622863665
 C          4.5602891355       -3.5667497428       -0.5862338021
 C          4.8445016865       -3.1746259155        0.7133037759
 C          4.8502952868       -1.8291369507        1.0430301758
 H          5.0707481106       -1.4850633592        2.0397278967
 H          5.0590882085       -3.9134222788        1.4685963302
 H          4.5536222278       -4.6147902951       -0.8410679893
 H          4.0613486515       -2.9284108991       -2.5719858848
 H          4.0739957580       -0.5083089736       -1.9676154477
 H          3.8985319330        1.4645896866        2.5455720007
 H          1.9169427270        2.6348180724        3.0967100776
 H         -0.4345662405        3.1177047968        2.5321974653
 H         -1.4866071038        2.0525734043        0.5741200492
 C         -0.3676573475        0.2452633766       -1.1450799790
 H          0.2213975091       -0.6633457238       -1.3497354878
 C         -0.2703817822        1.1249754724       -2.3847546535
 C         -0.0901481691        2.6088959086       -2.3378471427
 C          1.0417465910        1.7351878507       -2.7832019078
 H          1.3117130683        1.7341422960       -3.8288662615
 H          1.8828286121        1.6272158924       -2.1127514984
 H         -0.0168947327        3.0828270532       -1.3716969944
 H         -0.6170050480        3.2010089214       -3.0704287385
 H         -0.8899958499        0.7457381952       -3.1916995730
 O         -2.9209385152        1.7520335384       -1.4082366349
