  62
        -98.94006255
 C         -1.0144991444       -1.6141323333        0.1009710344
 C         -1.5410477592       -0.6357307026        0.9731762134
 C         -2.7688685815        0.0533288435        0.5393067554
 C         -3.2853014166       -0.2375866155       -0.6680962873
 C         -4.5133982227        0.3348058619       -1.3292653113
 C         -4.6702156793        1.8623570720       -1.2657934194
 C         -5.8143890877        2.3174964276       -0.3582885258
 H         -6.1358355309        3.3121797580       -0.6750827904
 H         -6.6595988471        1.6407350969       -0.5002529374
 C         -5.4723311532        2.3947051921        1.1284974122
 H         -4.8068739776        3.2435827470        1.3008991865
 H         -6.3999893207        2.5927347956        1.6706801058
 C         -4.8179527141        1.1430809359        1.7169440104
 H         -5.2871262440        0.2435242105        1.3206250953
 H         -4.9980497530        1.1492049103        2.7940662398
 C         -3.2987677837        1.0821388483        1.5006997770
 H         -2.9222314553        2.0641623270        1.1961159810
 H         -2.8027819549        0.8548116477        2.4498866817
 H         -3.7304016016        2.3179672052       -0.9544749478
 H         -4.8783688472        2.2190153595       -2.2760643513
 H         -4.4514591241        0.0111756224       -2.3707189529
 H         -5.3969082182       -0.1471103834       -0.9034938970
 O         -2.7272203331       -1.1701425936       -1.4923383830
 C         -1.5802128324       -1.8649533235       -1.1476313945
 O         -1.1773441004       -2.6575719614       -2.0202251448
 O         -1.0032463364       -0.3438106169        2.0770848686
 C          0.2641027567       -2.3322574402        0.4874974762
 C          1.3933450269       -1.9277728647       -0.4301863326
 C          2.3901256050       -2.8002996570       -0.8493409623
 C          3.4125095722       -2.3510491251       -1.6677206794
 C          3.4803750590       -1.0275914919       -2.0643214153
 C          2.4904862769       -0.1457341177       -1.6456036238
 C          1.4602082044       -0.6040676934       -0.8416647234
 H          0.6825710851        0.0842213238       -0.5504202696
 N          2.5100111534        1.2061291253       -2.0184962163
 S          1.9659496410        2.3712003042       -0.9491548048
 O          0.5264452762        2.3542616452       -0.8682834408
 O          2.5521662158        3.6001974376       -1.4417362739
 C          2.7107426845        1.9395188928        0.6134438043
 C          1.9624785136        1.4010755805        1.6395223457
 C          2.6043393705        1.0356877201        2.8132721259
 C          3.9721962828        1.2139859464        2.9422444804
 C          4.7093992104        1.7652720967        1.9046189760
 C          4.0753612946        2.1285297947        0.7287265057
 H          4.6099584441        2.5715536742       -0.0957911486
 H          5.7727188577        1.9091205407        2.0083856927
 H          4.4646185647        0.9246765468        3.8572328558
 H          2.0211879262        0.6079228585        3.6132939271
 H          0.8986171948        1.2636462041        1.5234455054
 H          3.3362387045        1.5033663091       -2.5157101160
 H          4.2812962120       -0.6803213195       -2.6985682081
 H          4.1744305936       -3.0416248196       -1.9956787775
 H          2.3618587470       -3.8329617785       -0.5426306069
 H          0.5105702403       -1.9631371935        1.4953409285
 C          0.0487034123       -3.8294332367        0.5573076274
 C          0.8182338459       -4.6600952439        1.5394296655
 C         -0.6416685139       -4.4039152050        1.7571484062
 H         -1.3391136460       -5.2149741986        1.6113122927
 H         -0.9308507145       -3.7161418120        2.5384858012
 H          1.1233969451       -5.6533183670        1.2463440079
 H          1.5208462520       -4.1521857592        2.1825601665
 H         -0.1866856199       -4.2604755093       -0.4089723487
