  62
        -98.94215197
 C         -2.2266395495       -0.8875373367        0.1248283298
 C         -1.6398602667       -0.0752184982       -0.8729764467
 C         -2.0635830754        1.3357920494       -0.9067649488
 C         -2.8956537237        1.7939336830        0.0440386694
 C         -3.5193800398        3.1601468272        0.2004021225
 C         -2.6924779995        4.3894321305       -0.1845085656
 C         -1.2104566383        4.3183388274        0.2107191003
 H         -0.9474137484        5.2144934286        0.7762960385
 H         -1.0306350984        3.4594880302        0.8613183730
 C         -0.2743744280        4.2232094461       -0.9950887887
 H         -0.6137143092        4.9151375743       -1.7696691697
 H          0.7262446971        4.5346650742       -0.6850321131
 C         -0.1472348163        2.8191957899       -1.5805362615
 H          0.3249748361        2.1710372642       -0.8384191014
 H          0.5203331910        2.8683437732       -2.4443878305
 C         -1.4710433559        2.1643326994       -2.0115806256
 H         -2.1764039725        2.9066465546       -2.3784517363
 H         -1.2524410803        1.4642916632       -2.8226906354
 H         -2.7703042035        4.5628857696       -1.2566369362
 H         -3.1601931678        5.2445843919        0.3072522606
 H         -4.4527716052        3.1655404228       -0.3719796912
 H         -3.7944183395        3.2252875449        1.2566605167
 O         -3.3596773227        0.9934147161        1.0489615096
 C         -3.0447130053       -0.3509498358        1.1145911944
 O         -3.5435449492       -0.9523443512        2.0906084317
 O         -0.8188507602       -0.5134406302       -1.7200813798
 C         -1.8934881049       -2.3691470138        0.1941897339
 C         -0.3986269823       -2.5277737154        0.3158266664
 C          0.3655520698       -3.3612765060       -0.4902521211
 C          1.7456544790       -3.3788252862       -0.3769494370
 C          2.3918698394       -2.5512935802        0.5236453246
 C          1.6325863680       -1.7360206090        1.3514246383
 C          0.2524243927       -1.7496668829        1.2656006381
 H         -0.3298003212       -1.0982223536        1.9068554324
 N          2.3037187489       -0.8093078505        2.2064475918
 S          2.2777080419        0.7260675691        1.4930134540
 O          3.0328993378        1.5859622308        2.3805056686
 O          0.9218076125        1.1592926839        1.2291738531
 C          3.1783470084        0.4501603006       -0.0129576314
 C          4.5542791771        0.5700122159        0.0278576593
 C          5.2849962390        0.3063493597       -1.1188571321
 C          4.6294251424       -0.0770998313       -2.2795668567
 C          3.2485792316       -0.1956087301       -2.3016394786
 C          2.5089056442        0.0671553619       -1.1584996703
 H          1.4333913542       -0.0274851728       -1.1543332997
 H          2.7330037385       -0.4976480160       -3.1989900325
 H          5.1973080514       -0.2860006672       -3.1725320799
 H          6.3591676815        0.3971877244       -1.1036392851
 H          5.0151168999        0.8724000687        0.9538742210
 H          1.8619580048       -0.7305304972        3.1138713212
 H          3.4669979834       -2.5214349179        0.5924781595
 H          2.3254253365       -4.0254731772       -1.0169596300
 H         -0.1202490167       -3.9841082771       -1.2233650326
 H         -2.3622404423       -2.7442549796        1.1158270764
 C         -2.4872360074       -3.0968235117       -0.9934853360
 C         -2.8496192517       -4.5468679640       -0.8854921734
 C         -3.9271343506       -3.5072687581       -0.9453415826
 H         -4.5174094673       -3.4238932319       -1.8453850807
 H         -4.4761873744       -3.2820393834       -0.0422947773
 H         -2.7044951359       -5.1807962477       -1.7469835581
 H         -2.6727165025       -5.0374191584        0.0596820723
 H         -2.1032724770       -2.7311976651       -1.9387428961
