  62
        -98.94121127
 C         -2.7609694553       -0.1901500303       -0.1436315502
 C         -2.1154471666        0.6799157652       -1.0552689039
 C         -2.0795825335        2.0978380263       -0.6744665436
 C         -2.5915686540        2.4947099858        0.5032755354
 C         -2.6116026464        3.9015015160        1.0351959956
 C         -1.2986720765        4.3282901591        1.7062503979
 C         -0.1368550171        4.6089750485        0.7522123884
 H         -0.4682630036        5.2888404637       -0.0335509861
 H          0.6305770624        5.1270344819        1.3307505872
 C          0.4908330007        3.3576479890        0.1224114749
 H          0.2258004528        2.4719324838        0.7064776477
 H          1.5797234757        3.4421148111        0.1687348486
 C          0.1138865720        3.1247409702       -1.3411359351
 H          0.5549847429        2.1767366746       -1.6607136117
 H          0.5356151796        3.9206118816       -1.9596638109
 C         -1.3947555173        3.0527363721       -1.6064053803
 H         -1.8384786602        4.0443454845       -1.5232876934
 H         -1.5437315967        2.6854607389       -2.6250167306
 H         -1.5042354759        5.2405166746        2.2713610819
 H         -1.0021976714        3.5547221826        2.4190769247
 H         -2.8541966398        4.5965121077        0.2306923023
 H         -3.4085611458        3.9399873450        1.7808501741
 O         -3.1825513307        1.6272717927        1.3668576897
 C         -3.2722612061        0.2792425797        1.0712712666
 O         -3.8344721054       -0.3986050530        1.9553698153
 O         -1.5814207315        0.3220269312       -2.1406975623
 C         -2.8771728067       -1.6951766089       -0.3460842226
 C         -1.6105306545       -2.3566762168        0.1430471496
 C         -1.6297817466       -3.3112671671        1.1521883161
 C         -0.4487414496       -3.8371129057        1.6484487602
 C          0.7741521325       -3.4089733329        1.1625728300
 C          0.7995118329       -2.4610833327        0.1493190508
 C         -0.3831413536       -1.9590100086       -0.3668280956
 H         -0.3507996832       -1.2168997508       -1.1512042017
 N          2.0472555266       -1.9582282361       -0.3086256915
 S          2.6977406867       -0.9024591015        0.8517418382
 O          3.1975707631       -1.7009259786        1.9424740689
 O          1.7265101377        0.1117109113        1.2016777353
 C          4.0547742343       -0.1784236797       -0.0480676339
 C          3.8331918416        0.9829343141       -0.7629479450
 C          4.8760102153        1.5304110070       -1.4932631365
 C          6.1147731254        0.9067618869       -1.4988184981
 C          6.3208933238       -0.2599160443       -0.7776793246
 C          5.2822381488       -0.8121825013       -0.0449339774
 H          5.3955602227       -1.7125744960        0.5355600308
 H          7.2859559674       -0.7402010920       -0.7840886640
 H          6.9247046626        1.3349834149       -2.0679264073
 H          4.7167720896        2.4377634221       -2.0534133459
 H          2.8555623958        1.4378373534       -0.7222426159
 H          1.9098411328       -1.4227984006       -1.1587047912
 H          1.7027324290       -3.7721571456        1.5718058596
 H         -0.4803320199       -4.5733293048        2.4374364000
 H         -2.5773984255       -3.6189061666        1.5700072745
 H         -3.6987469718       -2.0236981889        0.3047987108
 C         -3.1997237138       -2.1019442274       -1.7698105200
 C         -3.8297493329       -3.4385492230       -2.0154985386
 C         -4.6314899967       -2.1860553842       -2.2014017249
 H         -4.8849675724       -1.8762069380       -3.2039171992
 H         -5.3888662880       -1.9510495991       -1.4675106583
 H         -3.5320005894       -3.9935866567       -2.8916357094
 H         -4.0463386221       -4.0553309868       -1.1564308217
 H         -2.4828888387       -1.7401675506       -2.4944403358
