  62
        -98.93507506
 C         -2.3048545428       -1.2392083765        0.3853286835
 C         -2.2482327104       -0.0707750595       -0.4113147312
 C         -3.2760111322        0.9472633979       -0.1361971997
 C         -4.1754972874        0.7280305328        0.8396651967
 C         -5.3258074400        1.6305488429        1.1851767306
 C         -6.4600910440        1.4568999897        0.1549911475
 C         -6.7347124336        2.6973707818       -0.6954786666
 H         -7.3898254744        2.3933980060       -1.5147324085
 H         -7.2787934140        3.4275964697       -0.0927187229
 C         -5.5010224025        3.3953980990       -1.2760129408
 H         -5.8571265159        4.0753269046       -2.0529379277
 H         -5.0357182377        4.0163139480       -0.5090670401
 C         -4.4310734144        2.4759052069       -1.8788343949
 H         -4.0415027053        2.9541740315       -2.7798637851
 H         -4.8696394117        1.5269087915       -2.1881343529
 C         -3.2260054650        2.2054174838       -0.9584563122
 H         -2.3308141405        2.0968314499       -1.5779739841
 H         -3.0682628699        3.0650566475       -0.3014369456
 H         -6.2062587860        0.6171034894       -0.4952738038
 H         -7.3822539987        1.1856629939        0.6711613940
 H         -5.6707621563        1.3503303086        2.1806226958
 H         -4.9873042788        2.6639156083        1.2115766312
 O         -4.1873199542       -0.4025971747        1.5931391810
 C         -3.2562632528       -1.4068703053        1.3922396071
 O         -3.3771763220       -2.3821450075        2.1607260998
 H          0.8526837163       -1.7737934950       -1.4488542048
 C          1.0513208713       -1.5672297555       -0.4097388214
 C          0.0794711505       -1.8173165034        0.5431802715
 C          0.3601898428       -1.5264303692        1.8765712498
 C          1.5842134903       -1.0006953993        2.2397098622
 C          2.5504881679       -0.7374862632        1.2826808372
 C          2.2778109025       -1.0164997260       -0.0492225271
 N          3.2137229647       -0.7210450314       -1.0394316352
 S          4.8146591740       -0.3842965662       -0.7794729121
 O          5.3911899542       -0.3154056377       -2.1039286795
 O          5.4198331200       -1.3338571452        0.1255576047
 C          4.8259403410        1.2385676949       -0.0431155079
 C          5.7045292549        1.5067827616        0.9881770437
 C          5.7243699665        2.7774751816        1.5412410842
 C          4.8691711841        3.7541832603        1.0550783644
 C          3.9933059442        3.4695933069        0.0183419325
 C          3.9702208275        2.2014952617       -0.5401681008
 H          3.2968392309        1.9481307648       -1.3425471041
 H          3.3260387304        4.2295051004       -0.3558091502
 H          4.8833507712        4.7423978342        1.4870663621
 H          6.4040216655        2.9999673963        2.3480993867
 H          6.3457882379        0.7147953576        1.3410296832
 H          2.9667247287       -0.9558333908       -1.9860730115
 H          3.5096558560       -0.3341359379        1.5626655512
 H          1.7911885429       -0.7869692749        3.2774799210
 H         -0.4006740208       -1.7169600255        2.6214630297
 C         -1.2883014943       -2.3538047318        0.1970252107
 H         -1.5462484160       -3.1248346663        0.9358808496
 C         -1.3876868355       -2.9559141509       -1.1883370653
 C         -0.7886489130       -4.3035182225       -1.4534031251
 C         -2.2776882854       -4.1409024428       -1.4055179431
 H         -2.8339005415       -4.2054196011       -2.3287631028
 H         -2.8088524096       -4.5296790185       -0.5488553250
 H         -0.3227572362       -4.4843401681       -2.4103136956
 H         -0.3060687286       -4.8049468268       -0.6280201519
 H         -1.3489787129       -2.2156588015       -1.9783297330
 O         -1.3890043474        0.1198980083       -1.3112899067
