  62
        -98.94723181
 C         -0.9904934321       -1.5173013833       -0.8839268092
 C         -2.3108103207       -1.4548932256       -0.3674212476
 C         -3.0637181760       -0.2282554227       -0.6414176006
 C         -2.4918882605        0.7544311438       -1.3592980799
 C         -3.1067062130        2.0873820902       -1.6878460485
 C         -2.9473830037        3.1178246827       -0.5609443973
 C         -3.8605065277        2.9014780764        0.6466201832
 H         -3.8295246005        3.8183730079        1.2388838376
 H         -4.8885882073        2.7648754952        0.3080867211
 C         -3.4476081562        1.7262722055        1.5442200289
 H         -3.4940481452        2.0373792756        2.5910887671
 H         -2.4056040680        1.4624109694        1.3432498099
 C         -4.3234869289        0.4801723647        1.4066151033
 H         -5.3333447211        0.7030445282        1.7600136190
 H         -3.9055021681       -0.3003381893        2.0476803508
 C         -4.4186548368       -0.0790965048       -0.0184680806
 H         -4.8713389956       -1.0725845468        0.0349530004
 H         -5.0510904259        0.5616480723       -0.6327889891
 H         -1.9073106718        3.1124372227       -0.2229902187
 H         -3.1601481763        4.1036573532       -0.9818936722
 H         -2.5924523186        2.4607627046       -2.5761213919
 H         -4.1638445799        1.9626360611       -1.9241565149
 O         -1.2505362874        0.6358124983       -1.8910333635
 C         -0.4516475754       -0.4707673022       -1.6328458545
 O          0.6831342057       -0.3835616194       -2.1428158646
 H          1.3099700822       -0.5239411343        0.1020651806
 C          1.2092518936       -1.1647222404        0.9625320111
 C          0.5229170104       -2.3649581536        0.8521513824
 C          0.4316679347       -3.1841156355        1.9705769202
 C          0.9918508957       -2.7922879138        3.1743676097
 C          1.6140993896       -1.5625700229        3.2964382497
 C          1.7119762138       -0.7388464609        2.1809152753
 N          2.2981406352        0.5339207675        2.2482255850
 S          1.6065758178        1.7771529079        1.3546031531
 O          1.9952569662        2.9823458841        2.0625951406
 O          0.1839754971        1.5915999446        1.1843024006
 C          2.4561617715        1.7600634424       -0.2074887668
 C          3.7513673420        1.2871872673       -0.2709399589
 C          4.4198410159        1.3331454629       -1.4832117972
 C          3.7893343740        1.8553716465       -2.6019525679
 C          2.4911307189        2.3312290963       -2.5194305942
 C          1.8155894368        2.2841464715       -1.3109862319
 H          0.7965912291        2.6246372293       -1.2124159243
 H          1.9951667699        2.7266967752       -3.3913146455
 H          4.3097493887        1.8859877558       -3.5463930606
 H          5.4282286572        0.9574889701       -1.5527597903
 H          4.2081341176        0.8808061809        0.6162463980
 H          2.5617024676        0.8408461435        3.1734526905
 H          2.0099796014       -1.2367840464        4.2462350447
 H          0.9152883912       -3.4373169847        4.0365508070
 H         -0.1035761735       -4.1193774320        1.9009429597
 C         -0.1599842940       -2.7147392822       -0.4508376092
 H         -0.8807761174       -3.5181876058       -0.2450820368
 C          0.8387743234       -3.2126393578       -1.4742148171
 C          1.3085483057       -4.6336971491       -1.3988696088
 C          0.3989416015       -4.2025377122       -2.5091031461
 H          0.8014544191       -4.1141504728       -3.5066517687
 H         -0.6304408643       -4.5293581145       -2.4817994677
 H          0.8958403422       -5.2586111859       -0.6215391627
 H          2.3402135206       -4.8460289615       -1.6327246302
 H          1.5529613178       -2.4592900369       -1.7786806386
 O         -2.8344816196       -2.3884019460        0.2999350682
