  62
        -98.94446826
 C         -1.3172163466       -1.7124754969       -0.6564751265
 C         -2.5233660872       -1.6214808910        0.0853390628
 C         -3.4692936379       -0.5818327083       -0.3284917019
 C         -3.1808162113        0.1940396109       -1.3885111287
 C         -4.0263783052        1.3182249743       -1.9208975032
 C         -3.7912499427        2.6475550324       -1.1899041596
 C         -4.3861381403        2.7261321940        0.2168837679
 H         -4.3524044065        3.7746843432        0.5195688909
 H         -5.4349789057        2.4279141443        0.1856328835
 C         -3.6404117781        1.8889473874        1.2659877184
 H         -3.4951576478        2.4857896533        2.1698705423
 H         -2.6430721240        1.6408401314        0.8918001174
 C         -4.3596682858        0.6051251452        1.6833743918
 H         -3.7207944666        0.0729716951        2.3930922919
 H         -5.2923835567        0.8591439643        2.1923862412
 C         -4.6782387091       -0.3507309306        0.5261222678
 H         -4.9771142747       -1.3130229919        0.9491325721
 H         -5.5004575246        0.0410781093       -0.0720644394
 H         -2.7145510703        2.8318666698       -1.1373850584
 H         -4.2369890106        3.4398761523       -1.7962734970
 H         -5.0815413819        1.0491473269       -1.8656908366
 H         -3.7522558860        1.4479568541       -2.9700941712
 O         -2.0511867100        0.0304550691       -2.1203581923
 C         -1.0605784922       -0.8707521005       -1.7397698067
 O         -0.0477700959       -0.8194279551       -2.4616319400
 O         -2.7890238737       -2.3763708981        1.0598776386
 C         -0.2796968408       -2.6789421566       -0.1128343548
 C          0.4574121743       -2.0301938736        1.0357994366
 C          0.8290547445       -2.7526718310        2.1635953635
 C          1.4853109843       -2.1274927130        3.2097464147
 C          1.7687560143       -0.7745631320        3.1607335968
 C          1.3834964564       -0.0378374005        2.0446546485
 C          0.7523771652       -0.6760165268        0.9879379789
 H          0.4485734828       -0.0963754190        0.1325005580
 N          1.5913004469        1.3424662176        1.9945844167
 S          1.6064280250        2.2466968984        0.5943875060
 O          1.9973677127        3.5642565664        1.0503762762
 O          0.3362067329        2.1645916210       -0.0809236685
 C          2.9327153026        1.5642687243       -0.3827997160
 C          4.2181429050        1.8232179583        0.0577746115
 C          5.2907094694        1.3040649442       -0.6461707601
 C          5.0624271391        0.5369263786       -1.7794441652
 C          3.7692362740        0.2909948469       -2.2101434916
 C          2.6882741382        0.8041014917       -1.5070750838
 H          1.6765339164        0.6063591123       -1.8268638429
 H          3.5821322854       -0.3027987022       -3.0903579683
 H          5.8955990023        0.1307284566       -2.3309064999
 H          6.2974382557        1.4982154143       -0.3129042220
 H          4.3518510702        2.4415691424        0.9304598178
 H          2.1513277116        1.7394336403        2.7321671495
 H          2.2623042296       -0.2848234759        3.9858250467
 H          1.7701683598       -2.6981860860        4.0804981477
 H          0.5787305069       -3.8010648163        2.2302030892
 H         -0.8564660174       -3.5198052783        0.3060751865
 C          0.6577170731       -3.2448261760       -1.1677008611
 C          2.0775993511       -2.7970767996       -1.3172132217
 C          1.7794331514       -4.1629020531       -0.7807274597
 H          1.9790234393       -5.0190783192       -1.4069855905
 H          1.9505886537       -4.3335504383        0.2706043202
 H          2.4679557237       -2.7017134120       -2.3180490781
 H          2.4459047931       -2.0455027622       -0.6355043142
 H          0.1310460112       -3.4820064219       -2.0859701280
