  62
        -98.94113083
 C         -2.0001637704       -0.3326456287        0.1525739899
 C         -3.1014723405       -0.9902500186        0.7613009297
 C         -4.3366778205       -0.2095409385        0.8853547795
 C         -4.3531163803        1.0763829915        0.4921839695
 C         -5.5280774802        2.0126041316        0.5733183992
 C         -6.5014552600        1.8929483317       -0.6075097109
 C         -7.3632838801        0.6295512218       -0.6159022511
 H         -7.8585840003        0.5227386118        0.3496905388
 H         -8.1420304300        0.7787998118       -1.3665033112
 C         -6.5975343502       -0.6584814783       -0.9495850209
 H         -5.6417339101       -0.4032317584       -1.4134118807
 H         -7.1628524601       -1.2387355883       -1.6823872810
 C         -6.3391220105       -1.5713740883        0.2493243591
 H         -7.2899913606       -1.9388921582        0.6413093590
 H         -5.7616426405       -2.4335383084       -0.0943898607
 C         -5.5626425507       -0.9061418484        1.3933862493
 H         -6.2049263907       -0.2061272083        1.9272285691
 H         -5.2390235709       -1.6851831584        2.0879454093
 H         -7.1657499300        2.7594832917       -0.5709333711
 H         -5.9311987899        1.9515384016       -1.5376521908
 H         -5.1188135902        3.0252138316        0.5816339193
 H         -6.0652672504        1.8474837617        1.5077213291
 O         -3.2584879802        1.6934839414       -0.0223305103
 C         -2.0640916502        1.0090355513       -0.2284309601
 O         -1.1742098000        1.7111904512       -0.7423156499
 O         -3.0527771107       -2.1758960186        1.1831048798
 C         -0.7229026504       -1.1379254888       -0.0145669998
 C          0.4553156196       -0.3712941389        0.5266985404
 C          0.6465594893       -0.3028686189        1.9033355004
 C          1.7037046693        0.4107573910        2.4363985706
 C          2.5895032395        1.0758566109        1.6073909308
 C          2.4031977797        1.0187853409        0.2326761107
 C          1.3521945798        0.2851037810       -0.3015042195
 H          1.2072227500        0.2630817510       -1.3702538995
 N          3.2928349299        1.7029769708       -0.6144866691
 S          4.9314860899        1.4600862107       -0.3949159188
 O          5.3831493997        2.1947917207        0.7601162313
 O          5.5441257402        1.8172779906       -1.6547708287
 C          5.0863025297       -0.2921735493       -0.1001135287
 C          5.3525807194       -0.7595572493        1.1704339113
 C          5.4036792492       -2.1281567193        1.3831670713
 C          5.1848988094       -3.0002601793        0.3283918213
 C          4.9213226296       -2.5148166293       -0.9436265288
 C          4.8673400498       -1.1480748893       -1.1616522188
 H          4.6734410300       -0.7334045893       -2.1379221388
 H          4.7546821097       -3.1957175193       -1.7629406888
 H          5.2215690592       -4.0649989193        0.4969960013
 H          5.6105132290       -2.5087362093        2.3703838414
 H          5.5198441193       -0.0480564293        1.9620813913
 H          3.0398901401        1.6584498808       -1.5902751192
 H          3.4117458295        1.6497016508        2.0032492309
 H          1.8373686791        0.4554951710        3.5066183206
 H         -0.0524287109       -0.8109427088        2.5533563103
 H         -0.8777995806       -2.0194009388        0.6285864302
 C         -0.4905389202       -1.6689852288       -1.4216456598
 C         -1.6429295801       -2.1395555288       -2.2564193100
 C         -0.8766627399       -0.9168147388       -2.6585388699
 H         -0.2261394697       -0.9824009489       -3.5189829797
 H         -1.3432654098        0.0485830612       -2.5405845100
 H         -1.5251666301       -3.0391893988       -2.8413249400
 H         -2.6357526401       -2.0085504587       -1.8509512302
 H          0.4191953598       -2.2591591289       -1.4793686896
