  62
        -98.93844178
 C          0.6372158856        1.6672078830        0.1366467112
 C          1.0254629012        0.5660632796       -0.6616202489
 C          2.2586404467       -0.1385649922       -0.2524784521
 C          2.8542267162        0.1813754620        0.9100247227
 C          4.0578098250       -0.4079160459        1.6157538072
 C          5.0046706242       -1.3530429591        0.8816475929
 C          5.8268651692       -0.6945616549       -0.2271902141
 H          6.5753856894       -0.0468662431        0.2362383304
 H          6.3582265744       -1.4770659122       -0.7729359688
 C          5.0401185023        0.1580475394       -1.2201438356
 H          4.5581999668        0.9840924401       -0.6934045470
 H          5.7540253117        0.5981973532       -1.9218122565
 C          3.9888697919       -0.5891701800       -2.0381999891
 H          3.5959823354        0.1053169216       -2.7862281704
 H          4.4589611626       -1.4192039887       -2.5695588910
 C          2.7968053723       -1.1369302483       -1.2359655679
 H          3.0566876879       -2.0686950998       -0.7437149263
 H          1.9820723201       -1.3498549107       -1.9341912731
 H          5.7069328057       -1.7340971548        1.6279935806
 H          4.4587696806       -2.2091392412        0.4970237987
 H          3.6607090176       -0.9257654778        2.4952796525
 H          4.6291515662        0.4450936920        1.9954667141
 O          2.3577398727        1.1630401028        1.7195027321
 C          1.2998590405        1.9605238969        1.3313054673
 O          1.0379876106        2.8842341553        2.1273193540
 O          0.3998377741        0.1675640451       -1.6795803118
 C         -0.5223880756        2.5944842585       -0.1976556706
 C         -1.8067150135        2.0476954634        0.3751458109
 C         -2.5008982057        2.7503152202        1.3532014615
 C         -3.6547850354        2.2273144255        1.9085711768
 C         -4.1254245513        0.9895516674        1.5109671485
 C         -3.4352047130        0.2777655943        0.5339458820
 C         -2.2917843962        0.8151098675       -0.0402390674
 H         -1.7676701484        0.2596461405       -0.8024012054
 N         -3.8862336756       -0.9866947709        0.1432683898
 S         -2.9884937100       -2.0864871654       -0.7148268711
 O         -2.7897959309       -1.6286127885       -2.0662224899
 O         -3.7438526815       -3.3169702773       -0.5842685010
 C         -1.4183752962       -2.3277742113        0.1046596004
 C         -1.1621237475       -1.8569382030        1.3757248301
 C          0.0586151857       -2.1501819613        1.9646863584
 C          0.9858873542       -2.9284057244        1.2925195241
 C          0.7061774674       -3.4100326240        0.0234589785
 C         -0.5005025506       -3.0989453913       -0.5795566701
 H         -0.7498728415       -3.4362660037       -1.5729732673
 H          1.4212228245       -4.0246183458       -0.4995789633
 H          1.9293444455       -3.1607261606        1.7610418302
 H          0.2771281125       -1.7676626591        2.9494331249
 H         -1.8908426870       -1.2578546393        1.8973326530
 H         -4.5946642524       -1.4136036270        0.7193775643
 H         -5.0157811768        0.5698984342        1.9531662140
 H         -4.1860183499        2.7818114398        2.6669715324
 H         -2.1177071801        3.7018079497        1.6905697599
 H         -0.3034433633        3.5382013105        0.3213797504
 C         -0.6663034336        2.8881029429       -1.6769588859
 C         -1.3422471903        4.1564016738       -2.0997616968
 C          0.1364326201        3.9962737826       -2.2857113614
 H          0.5226090827        3.8626202116       -3.2850315186
 H          0.7950646423        4.5529026457       -1.6344961556
 H         -1.9763683200        4.1339298252       -2.9727632991
 H         -1.6847547536        4.8252019767       -1.3244876510
 H         -0.8313716604        2.0050746891       -2.2801647708
