  62
        -98.93804209
 C         -2.3318598795       -0.1089004096        0.4941370301
 C         -3.3168743996       -0.6634468602       -0.3596263094
 C         -4.3705267995        0.2620576496       -0.8004247902
 C         -4.3288396692        1.5563826899       -0.4391914013
 C         -5.3189113491        2.6201002198       -0.8287744223
 C         -6.5673675791        2.6645614208        0.0632047477
 C         -7.5539263392        1.5138085308       -0.1397831413
 H         -8.4732003292        1.7845716414        0.3834494884
 H         -7.7962511093        1.4271353599       -1.1994310813
 C         -7.0656347895        0.1587397911        0.3911037498
 H         -6.2360096395        0.3161324616        1.0841712897
 H         -7.8677105996       -0.3211909482        0.9564292502
 C         -6.6242857696       -0.8252004199       -0.6924564393
 H         -6.2647886998       -1.7342169595       -0.2036237085
 H         -7.4808528397       -1.0939011803       -1.3146960491
 C         -5.5047198095       -0.3023679209       -1.6019868898
 H         -5.8965462494        0.4476539586       -2.2885606504
 H         -5.1151502597       -1.1409258914       -2.1842649090
 H         -6.2491146191        2.6916328716        1.1079396377
 H         -7.0868443789        3.6016461507       -0.1501183631
 H         -5.6172073591        2.4813999389       -1.8682991322
 H         -4.7983955889        3.5761634798       -0.7408897231
 O         -3.3337171292        2.0640222204        0.3358612482
 C         -2.3335715593        1.2478168207        0.8326876189
 O         -1.5082133592        1.8389494012        1.5590411184
 O         -3.3415736598       -1.8615666505       -0.7440909484
 C         -1.1922525297       -0.9251145693        1.0851463708
 C         -0.0885569797       -1.0903503204        0.0671652010
 C         -0.2089156898       -1.9570917913       -1.0134937383
 C          0.8200900201       -2.0774310722       -1.9300626882
 C          1.9833022003       -1.3409197323       -1.7924052588
 C          2.1112554304       -0.4685027314       -0.7199548595
 C          1.0799741404       -0.3541880404        0.2036792704
 H          1.1750263405        0.3349133103        1.0327244998
 N          3.2814521605        0.3012924985       -0.5846356702
 S          4.7518289004       -0.4986766220       -0.8218819695
 O          5.0254373204       -0.5382551232       -2.2366474694
 O          4.7333588902       -1.7772104714       -0.1472851084
 C          5.8875102506        0.6130162985       -0.0164837104
 C          6.2471560305        0.3728614196        1.2961670598
 C          7.1140336207        1.2524565600        1.9251773290
 C          7.6011849209        2.3525970893        1.2355298481
 C          7.2308323909        2.5802287683       -0.0816186621
 C          6.3652700208        1.7041660579       -0.7170243814
 H          6.0577471008        1.8355290970       -1.7413065615
 H          7.6140438111        3.4353096277       -0.6147070628
 H          8.2762212010        3.0351183996        1.7272120575
 H          7.4061116106        1.0765126408        2.9479935692
 H          5.8521095504       -0.5004821499        1.7901851705
 H          3.2887336106        0.8334539392        0.2748941094
 H          2.7943527103       -1.4330436231       -2.4970307787
 H          0.7158625300       -2.7541404129       -2.7651531576
 H         -1.1221726899       -2.5166259212       -1.1414249878
 H         -0.7939253596       -0.3173418086        1.9088413003
 C         -1.6433713199       -2.2558750087        1.6529728420
 C         -0.7596112401       -2.9559494280        2.6392565426
 C         -2.0466659199       -2.3364637574        3.0931671820
 H         -2.8661334601       -2.9856558170        3.3626498926
 H         -1.9981131798       -1.4295774069        3.6786841513
 H         -0.6919360102       -4.0321004681        2.5971729835
 H          0.1638083000       -2.4693049979        2.9158217322
 H         -2.1958545700       -2.8640512992        0.9500151525
