  62
        -98.93339955
 C          2.2931757659        0.7360047517        0.4954567433
 C          2.7365394172        0.0513170830       -0.6642951581
 C          3.6948785841       -1.0429688287       -0.4319658386
 C          4.0556113386       -1.3575236450        0.8241134869
 C          5.0640239255       -2.4055621390        1.1937575759
 C          6.4746145244       -1.8078907948        1.2930855225
 C          6.8688973441       -0.9506805657        0.0902130362
 H          6.2342186686       -0.0619454930        0.0625633319
 H          7.8927426717       -0.6088129671        0.2568987024
 C          6.7849427655       -1.6748064763       -1.2607504404
 H          7.6849584455       -1.4473759559       -1.8359156309
 H          6.7664325889       -2.7536412049       -1.1020701707
 C          5.5894390964       -1.2690150429       -2.1247892753
 H          5.7452206102       -1.6700790627       -3.1297529460
 H          5.5514428933       -0.1800903846       -2.2092753607
 C          4.2198265135       -1.7629861405       -1.6422242839
 H          4.2583737039       -2.8394089096       -1.4639666726
 H          3.4968290475       -1.5715852134       -2.4403960037
 H          7.1883331852       -2.6255412691        1.4094209655
 H          6.5239528888       -1.1840913745        2.1887332962
 H          4.7867284719       -2.8231408759        2.1631761699
 H          5.0457582478       -3.1987159981        0.4488690036
 O          3.5658365228       -0.7135120375        1.9152205700
 C          2.6833108462        0.3422521845        1.7778471158
 O          2.3164234134        0.8426128936        2.8627444975
 O          2.3675649218        0.3213926338       -1.8329089448
 C          1.3202320562        1.9093243533        0.4287120591
 C          0.0194926202        1.4376290510       -0.1746664769
 C         -0.3285639808        1.4900115341       -1.5187604284
 C         -1.5427928183        0.9832033680       -1.9513957555
 C         -2.4337980396        0.4031154884       -1.0683943382
 C         -2.0951822487        0.3311016057        0.2762554971
 C         -0.8847357682        0.8512842684        0.7073517525
 H         -0.6245173478        0.7875696452        1.7573602108
 N         -2.9783808329       -0.2807052116        1.1845425779
 S         -4.5719877689        0.2499468046        1.2121768402
 O         -4.6734506473        1.6339686225        0.8104055545
 O         -5.0554053273       -0.0724274701        2.5370227425
 C         -5.3945497878       -0.7916676498        0.0254748843
 C         -5.3332734537       -2.1596844663        0.2050892665
 C         -5.9752939165       -2.9832642405       -0.7058139792
 C         -6.6664500795       -2.4281632322       -1.7726508734
 C         -6.7224271399       -1.0525492955       -1.9363880204
 C         -6.0813811578       -0.2230822642       -1.0293080730
 H         -6.0930884491        0.8515082577       -1.1188753262
 H         -7.2611858859       -0.6229804678       -2.7656256777
 H         -7.1648553045       -3.0718307344       -2.4801857321
 H         -5.9344863798       -4.0534664458       -0.5814826516
 H         -4.7897683314       -2.5507587247        1.0490761122
 H         -2.6114804111       -0.3433339157        2.1234128802
 H         -3.3758690786        0.0043865496       -1.4073677375
 H         -1.7928017750        1.0351099507       -3.0002066517
 H          0.3544995524        1.8944445494       -2.2431699598
 H          1.0992579127        2.1333772616        1.4840511469
 C          1.9919949414        3.1705521893       -0.0992313095
 C          2.4128484008        3.4283781924       -1.5134777287
 C          1.2889174654        4.2163665616       -0.9115127873
 H          1.4666181493        5.2532725644       -0.6672434443
 H          0.2812814304        4.0097104164       -1.2359439288
 H          3.3606650865        3.9270468843       -1.6618797456
 H          2.2095102315        2.6758287055       -2.2563333275
 H          2.6824924802        3.5448271995        0.6540333209
