  62
        -98.93810629
 C          2.0493043807        1.6103029210       -0.2802066411
 C          2.4297999503        0.5822580207       -1.1788903409
 C          3.6804174502       -0.1249930395       -0.8437612410
 C          4.3900924604        0.2425979505        0.2366394488
 C          5.6387162203       -0.4354728097        0.7199727488
 C          5.3112259002       -1.5428062094        1.7314624790
 C          4.2107821399       -2.4979626393        1.2682951594
 H          4.0867290998       -3.2538696291        2.0468842995
 H          3.2666370300       -1.9518983090        1.1999850194
 C          4.4930218795       -3.1889012596       -0.0731850905
 H          5.5568391795       -3.1265582999       -0.3055903507
 H          4.2419830793       -4.2477667295        0.0186798297
 C          3.6858221395       -2.6422771496       -1.2525293305
 H          2.6235540695       -2.6182681193       -0.9925873704
 H          3.7978100792       -3.3349784198       -2.0912756504
 C          4.0928154298       -1.2497302698       -1.7512626508
 H          5.1688780598       -1.2244725101       -1.9349733810
 H          3.5764706097       -1.0744300498       -2.6998647008
 H          6.2233195501       -2.1074507596        1.9330251990
 H          4.9868251605       -1.0750692392        2.6638220590
 H          6.1730466501       -0.8522900000       -0.1314062512
 H          6.2698376206        0.3115507602        1.2041729186
 O          4.0149080608        1.2615211408        1.0515845187
 C          2.8327274510        1.9450258410        0.8286484488
 O          2.5919546513        2.8344337012        1.6697356686
 H         -0.0172605597       -0.2105745785       -0.2603977104
 C         -0.5559731295        0.4172230018        0.4334781395
 C         -0.2956919491        1.7802460917        0.4911731392
 C         -1.0028848688        2.5573157821        1.4023328192
 C         -1.9420212488        1.9864501925        2.2422978594
 C         -2.2087091692        0.6313231025        2.1715533697
 C         -1.5127826795       -0.1537598378        1.2598271098
 N         -1.7808787999       -1.5370414478        1.1376040901
 S         -2.6188455702       -1.9721143078       -0.2492422897
 O         -2.9040267505       -3.3821142377       -0.1040962694
 O         -1.8711738803       -1.5729677482       -1.4106236399
 C         -4.1349033199       -1.0361269874       -0.1371814597
 C         -4.1401905597        0.2797443825       -0.5558035399
 C         -5.2929821494        1.0305629428       -0.3872684899
 C         -6.4128235295        0.4570767832        0.1953857704
 C         -6.3925190998       -0.8666364967        0.6082964006
 C         -5.2414119100       -1.6210249570        0.4471885806
 H         -5.1800415802       -2.6539942570        0.7499428608
 H         -7.2661674798       -1.3112263564        1.0570729808
 H         -7.3070206893        1.0457076335        0.3261577504
 H         -5.3086417292        2.0592687528       -0.7093689201
 H         -3.2533373796        0.6907168522       -1.0106134901
 H         -2.2612479199       -1.9227304375        1.9398636202
 H         -2.9432933092        0.1791706929        2.8212082799
 H         -2.4733583486        2.6009601528        2.9523426394
 H         -0.7925463485        3.6148041821        1.4630016090
 C          0.7565955109        2.4043196213       -0.3909664710
 H          0.9872843012        3.3944825513        0.0354833888
 C          0.2770739008        2.6430412012       -1.8139188210
 C         -0.7570168496        1.8087234513       -2.5002912807
 C         -1.0975844591        3.1970019215       -2.0542938409
 H         -1.2226639691        3.9629639914       -2.8045264110
 H         -1.7447772490        3.3054370918       -1.1965506208
 H         -0.6170980398        1.6187394511       -3.5538565907
 H         -1.1695497597        0.9595717815       -1.9779727505
 H          1.0759362408        3.0226509409       -2.4432139312
 O          1.7893381901        0.2550410607       -2.2092801008
