  62
        -98.94496572
 C          2.2096576250       -0.8085933016        0.1122288199
 C          3.0622397903       -0.5431605267       -0.9923931324
 C          3.8852906751        0.6690629855       -0.9090326275
 C          3.7695330845        1.4659040889        0.1685243976
 C          4.5783350920        2.7063775932        0.4111280565
 C          5.8584916489        2.3902597134        1.1974109718
 C          6.6597770833        1.2196567426        0.6276299351
 H          7.5552043701        1.1087933478        1.2429292468
 H          6.0775509732        0.3021360018        0.7390713298
 C          7.0667216217        1.3852582611       -0.8432188504
 H          8.1140434975        1.0957203533       -0.9513601253
 H          6.9889477162        2.4336613591       -1.1332742006
 C          6.2641758496        0.5276085236       -1.8233877451
 H          6.2616711195       -0.5111126450       -1.4838526782
 H          6.7705118365        0.5543346544       -2.7918492086
 C          4.8114164789        0.9617558810       -2.0559449947
 H          4.7804810317        2.0225324151       -2.3132758535
 H          4.4251725789        0.3909896757       -2.9053724213
 H          5.5813636380        2.1476741592        2.2259583838
 H          6.4815436229        3.2862746926        1.2158302049
 H          3.9702517599        3.4057135227        0.9876777567
 H          4.8291095306        3.1620282295       -0.5448939762
 O          2.9237597176        1.1977738002        1.1937227557
 C          2.1294953346        0.0598597711        1.2006250376
 O          1.4239295280       -0.0411035008        2.2251313474
 O          3.1342906340       -1.2942172011       -2.0010699289
 C          1.3608939570       -2.0685440519        0.0338531641
 C         -0.0550473577       -1.7086378228       -0.3477792555
 C         -0.5123408984       -1.9216442007       -1.6435998933
 C         -1.7953231428       -1.5534086488       -2.0079780707
 C         -2.6454407995       -0.9604910930       -1.0915135601
 C         -2.1920774210       -0.7285487899        0.2001837389
 C         -0.9114239372       -1.1143130738        0.5681042031
 H         -0.5598976875       -0.9094101231        1.5679717097
 N         -3.0416639918       -0.1070938835        1.1354443801
 S         -3.7280776901        1.3598344332        0.6840891905
 O         -2.9157847256        2.0490973872       -0.2927866318
 O         -3.9837256626        2.0626200327        1.9226659533
 C         -5.2855764237        0.8853360457       -0.0391369608
 C         -5.5880416745        1.2540957459       -1.3352398391
 C         -6.8080728439        0.8735707063       -1.8727493657
 C         -7.6994317159        0.1364237983       -1.1083681233
 C         -7.3819648527       -0.2229059351        0.1931905669
 C         -6.1644700819        0.1545843296        0.7364499020
 H         -5.8799650185       -0.0995807126        1.7438060638
 H         -8.0779137100       -0.7954070226        0.7849347863
 H         -8.6473608832       -0.1592356153       -1.5294158322
 H         -7.0566835949        1.1528894471       -2.8840100630
 H         -4.8615831003        1.8235856038       -1.8930586580
 H         -2.6196337436       -0.0226881776        2.0500066842
 H         -3.6437923376       -0.6648657994       -1.3698462734
 H         -2.1367900448       -1.7274835692       -3.0169567904
 H          0.1553075744       -2.3622974487       -2.3698970017
 H          1.7909636727       -2.6492503359       -0.7930964790
 C          1.4197405497       -2.9104169012        1.2925304278
 C          0.9976158566       -4.3465068772        1.2232070521
 C          2.4445416654       -3.9981397249        1.3978218132
 H          2.9086041870       -4.1765346892        2.3562884530
 H          3.1091790286       -4.1417433810        0.5583922594
 H          0.4648485004       -4.7675056860        2.0618494289
 H          0.6805289611       -4.7264008051        0.2639057866
 H          1.1908174883       -2.3598117548        2.1955452102
