  62
        -98.92750490
 C         -2.2366513255       -0.1142931875        0.7042501306
 C         -3.2821855586       -0.8476508282        0.0949517596
 C         -4.5855678588       -0.1585093807       -0.0305907101
 C         -4.7023727747        1.1146068135        0.3835899191
 C         -5.9112896187        2.0157611703        0.3555568818
 C         -6.7591692794        1.9974167446       -0.9256408723
 C         -8.1218305833        1.3263692844       -0.7441286147
 H         -8.5223184224        1.6125776130        0.2306297838
 H         -8.8053680092        1.7131285480       -1.5032641215
 C         -8.1170086122       -0.1968808018       -0.8604582754
 H         -7.9621621081       -0.4791915414       -1.9040136188
 H         -9.1083647257       -0.5534829121       -0.5711091909
 C         -7.0693960894       -0.9142738979       -0.0068709558
 H         -6.9974153091       -0.4529289297        0.9774405586
 H         -7.4098529135       -1.9405029651        0.1468320300
 C         -5.6808507611       -0.9755264606       -0.6607781882
 H         -5.3069605163       -2.0038404248       -0.6350781658
 H         -5.7545336222       -0.7103482193       -1.7192691620
 H         -6.2038927443        1.5187505555       -1.7305819344
 H         -6.9317399569        3.0327916928       -1.2239332620
 H         -6.5386445695        1.7793564504        1.2187697006
 H         -5.5165653579        3.0201610621        0.5250838034
 O         -3.6591300013        1.7905370370        0.9480211253
 C         -2.4239001412        1.2023388073        1.1302170843
 O         -1.5813353369        1.9422891961        1.6790254315
 H          1.6721401639        0.2895617412        0.9243151957
 C          1.3347009593        0.0192175582       -0.0657256455
 C          0.0516543402       -0.4725141635       -0.2525293995
 C         -0.3648577049       -0.7843166396       -1.5430741717
 C          0.4924258065       -0.6142642276       -2.6148343795
 C          1.7825123868       -0.1529075498       -2.4208611992
 C          2.2053845806        0.1680950342       -1.1363885771
 N          3.5018222154        0.6515710570       -0.9025437758
 S          4.2669670820        0.1819529222        0.5291477083
 O          3.9929569653       -1.2111958779        0.7979054185
 O          3.9150728212        1.1135379339        1.5713003855
 C          5.9771444933        0.4022312077        0.0761047589
 C          6.7079514922       -0.6881058333       -0.3568176834
 C          8.0284823297       -0.5022087099       -0.7347732693
 C          8.5913481250        0.7638826169       -0.6770683726
 C          7.8452105335        1.8484687210       -0.2398992000
 C          6.5248449439        1.6696638945        0.1410672894
 H          5.9095037664        2.4795259096        0.4970577460
 H          8.2870772974        2.8307131877       -0.1934439373
 H          9.6191242804        0.9059662069       -0.9715175640
 H          8.6120282190       -1.3437278277       -1.0716590582
 H          6.2307424782       -1.6547133959       -0.3769331781
 H          4.1086126091        0.5639530554       -1.7062403588
 H          2.4546638135       -0.0352586668       -3.2572458903
 H          0.1570954695       -0.8594496981       -3.6114030437
 H         -1.3602633260       -1.1732971279       -1.6935900162
 C         -0.8461741717       -0.6787071497        0.9400168642
 H         -0.4291491071       -0.0789587194        1.7660782972
 C         -0.8582412118       -2.1289961155        1.4068366460
 C         -0.4169930641       -3.2790266865        0.5580784475
 C          0.4334175500       -2.8319146582        1.7066574212
 H          0.4870062742       -3.4560319463        2.5862754303
 H          1.3552904812       -2.3135024083        1.4817043352
 H         -0.0719008456       -3.0714105550       -0.4422547384
 H         -0.9682254544       -4.2027760335        0.6446429238
 H         -1.6830050823       -2.3236772149        2.0855519768
 O         -3.1617805843       -2.0240535263       -0.3322989412
