  62
        -98.93689344
 C         -1.2577746109       -1.1807119399        0.2936886695
 C         -1.8825949309       -0.3739766006        1.2766343901
 C         -2.6786650010        0.7557171297        0.7819086410
 C         -2.7276867311        0.9909507507       -0.5420038288
 C         -3.5411695412        2.0742348411       -1.1885361580
 C         -4.9408719712        1.5677117813       -1.5636072582
 C         -5.6587353411        0.8378007904       -0.4284637487
 H         -6.6470593911        0.5550320507       -0.7972604489
 H         -5.1232371810       -0.0874327597       -0.2037616894
 C         -5.8106294510        1.6594698195        0.8593732019
 H         -5.6679649711        2.7189016497        0.6430501727
 H         -6.8299923110        1.5404642592        1.2327344319
 C         -4.8707397409        1.2427994187        1.9924101715
 H         -4.9443482609        0.1638448586        2.1512771907
 H         -5.2076137609        1.7313568780        2.9107502719
 C         -3.3919256210        1.6018882189        1.7986739817
 H         -3.3019130810        2.6623855291        1.5535414125
 H         -2.8802182309        1.4251801282        2.7494453315
 H         -5.5413720112        2.4199254215       -1.8869815176
 H         -4.8459700112        0.8791682119       -2.4062042787
 H         -3.6221225012        2.9195605106       -0.5076393973
 H         -3.0298446213        2.3982436518       -2.0961718678
 O         -2.0667759811        0.2343715614       -1.4502270494
 C         -1.3143567410       -0.8692199289       -1.0668467003
 O         -0.7649575111       -1.4540872581       -2.0133689707
 H          1.2263918492       -0.7949268510        1.9836527096
 C          1.7051665891       -1.2419407703        1.1210270193
 C          0.9884442991       -2.1577042498        0.3533749486
 C          1.6142081891       -2.6913745789       -0.7660195618
 C          2.9133421390       -2.3319530786       -1.0871815416
 C          3.6162798190       -1.4230419892       -0.3195395010
 C          2.9960110791       -0.8670192700        0.7913044794
 N          3.6790466891        0.1104922095        1.5498169201
 S          4.0869840890        1.4860692201        0.6796616211
 O          5.2701866289        1.2182752907       -0.0973091292
 O          4.1959029390        2.5471362194        1.6554014519
 C          2.6951054389        1.7600094208       -0.4027195886
 C          1.5234037489        2.2388910104        0.1482959418
 C          0.4144001088        2.3962022209       -0.6660705080
 C          0.4922653688        2.0610051219       -2.0088717482
 C          1.6737557388        1.5757636524       -2.5458487187
 C          2.7879353688        1.4220213018       -1.7372115589
 H          3.7256450188        1.0505910321       -2.1165694692
 H          1.7247727887        1.3087551331       -3.5889211089
 H         -0.3763615413        2.1684415323       -2.6389196281
 H         -0.5097441812        2.7648750606       -0.2488794877
 H          1.4956043090        2.4918896596        1.1965433720
 H          3.1788537691        0.3770792388        2.3866909003
 H          4.6199220690       -1.1192828889       -0.5693799909
 H          3.3791356890       -2.7615797180       -1.9609971220
 H          1.0894641491       -3.3642319785       -1.4189752923
 C         -0.4413494208       -2.3735698202        0.7793592486
 H         -0.4545015308       -2.2698882510        1.8761555186
 C         -1.1508271408       -3.6910738400        0.5041700576
 C         -1.2967548208       -4.3543876790       -0.8308192228
 C         -0.4463936707       -4.9856167798        0.2307895166
 H         -0.8176305507       -5.8768143102        0.7149663560
 H          0.6255931193       -4.9652542196        0.1170344466
 H         -2.2511530008       -4.8104428489       -1.0544508931
 H         -0.8399663809       -3.8892929684       -1.6882315825
 H         -2.0289271007       -3.7609662705        1.1428609077
 O         -1.7766258108       -0.5880336715        2.5159025700
