  62
        -98.93650931
 C         -1.2506561133       -1.9273011523       -0.3063770287
 C         -1.3546173952       -0.6751204614       -0.9516748484
 C         -2.3697548485        0.2614559154       -0.4296645574
 C         -3.0945066600       -0.0835038199        0.6477963230
 C         -4.1010926939        0.7266067068        1.4271823939
 C         -5.0611780783        1.6390582935        0.6505429648
 C         -4.7185318880        3.1270732312        0.7600513449
 H         -5.6315295242        3.7057778574        0.6018792456
 H         -4.3776608059        3.3282506386        1.7779820647
 C         -3.6729782752        3.6409119442       -0.2282936758
 H         -3.4350054680        4.6703687226        0.0494211542
 H         -4.1044505958        3.6645408174       -1.2313162955
 C         -2.3739520508        2.8358115954       -0.2827766869
 H         -2.0433424119        2.5618644729        0.7204284928
 H         -1.5949127567        3.4760011302       -0.7038038673
 C         -2.4810986300        1.5745905463       -1.1544004971
 H         -3.4119617903        1.5919772828       -1.7263748164
 H         -1.6699283606        1.5644804609       -1.8876042377
 H         -5.1094065511        1.3309974341       -0.3919600152
 H         -6.0568786789        1.4973279702        1.0746237955
 H         -4.6739752486       -0.0116909794        1.9941501542
 H         -3.5456389894        1.3161034229        2.1632693536
 O         -2.9555965379       -1.2997109310        1.2503046727
 C         -2.0416821746       -2.2320644471        0.8038151818
 O         -2.0299983713       -3.2927953673        1.4626330816
 H          1.1204901353       -0.6625607185       -0.3153912102
 C          1.5771164002       -1.4713658417        0.2277291993
 C          1.0410637914       -2.7480051880        0.1394614194
 C          1.6608758849       -3.7822546824        0.8292929188
 C          2.7765509571       -3.5344557402        1.6094553580
 C          3.2681857760       -2.2491560636        1.7447326679
 C          2.6557992526       -1.2065687992        1.0563419786
 N          3.1181765317        0.1103140176        1.1911104785
 S          2.0662497707        1.4177498647        1.3330025296
 O          2.6092263469        2.2077294508        2.4216341893
 O          0.6965694979        0.9912710441        1.4787876305
 C          2.3282806257        2.3154202833       -0.1833981705
 C          1.5157321935        2.1047742790       -1.2779428699
 C          1.7689031475        2.8105337375       -2.4447677099
 C          2.8242592935        3.7068930104       -2.5000770405
 C          3.6333507757        3.9068219346       -1.3914425611
 C          3.3851122318        3.2060866561       -0.2231559510
 H          3.9789124234        3.3410966218        0.6656978886
 H          4.4540230205        4.6046842890       -1.4345384915
 H          3.0153683066        4.2519289292       -3.4111207106
 H          1.1369506457        2.6474669520       -3.3034257695
 H          0.7016810987        1.3995152446       -1.2198213795
 H          3.8843233029        0.2112625522        1.8413176980
 H          4.1144131278       -2.0490176595        2.3847790973
 H          3.2517657520       -4.3454040735        2.1404254775
 H          1.2508161180       -4.7795885196        0.7710149489
 C         -0.2186762408       -2.9869286193       -0.6619206097
 H         -0.6445086671       -3.9438600964       -0.3281741296
 C          0.0935137574       -3.0935473311       -2.1407407199
 C          0.5756974981       -4.4008919843       -2.6908111006
 C         -0.8008366288       -3.9096407148       -3.0225308095
 H         -0.9998867171       -3.5537896532       -4.0219074492
 H         -1.6439068018       -4.4016728091       -2.5590356889
 H          0.6639649329       -5.2322723650       -2.0080013008
 H          1.3273164976       -4.3858559992       -3.4648166111
 H          0.5087247333       -2.1863872538       -2.5581425101
 O         -0.6303212935       -0.3141569162       -1.9189792388
