  62
        -98.93966301
 C         -1.4916523284       -1.5797645080        0.2409363751
 C         -1.6770074357       -0.4683217164        1.1008442287
 C         -2.8884289708        0.3476340497        0.9014871879
 C         -3.7512264391       -0.0087107568       -0.0680413775
 C         -5.0261454659        0.6888431999       -0.4558922389
 C         -4.7793521435        1.9457157228       -1.3145139507
 C         -3.5251862130        2.7411759655       -0.9552058575
 H         -3.3548097369        3.4722022370       -1.7497541289
 H         -2.6690223158        2.0637986556       -0.9522872478
 C         -3.5909758534        3.5023447677        0.3680040007
 H         -4.3343162989        4.2983756411        0.2784712330
 H         -2.6194155514        3.9756122686        0.5329313618
 C         -3.9445107033        2.6736541142        1.6020198171
 H         -4.9818042641        2.3532076465        1.5529934009
 H         -3.8633920455        3.3332994872        2.4713781967
 C         -3.0293261492        1.4834505391        1.8855203762
 H         -3.3425640999        1.0314277789        2.8353723426
 H         -2.0111574848        1.8483797525        2.0618946914
 H         -5.6559930178        2.5916125778       -1.2493212951
 H         -4.6740297714        1.6239293208       -2.3528723103
 H         -5.5933678632        0.9267765736        0.4399442238
 H         -5.6122302259       -0.0229709547       -1.0407014423
 O         -3.5286276000       -1.0739222923       -0.8827810282
 C         -2.4099925574       -1.8810071105       -0.7653632725
 O         -2.3737594973       -2.8032079035       -1.6022937620
 O         -0.8578521147       -0.1655292038        2.0116262858
 C         -0.2468859695       -2.4207908657        0.4705681431
 C          0.8543444912       -2.0207674664       -0.4821697358
 C          0.7597155328       -2.2577149626       -1.8499863032
 C          1.7838386050       -1.8751497370       -2.6963170996
 C          2.9089649110       -1.2370404451       -2.2029584639
 C          3.0104342045       -0.9903325537       -0.8393996651
 C          1.9893084546       -1.3935571450        0.0107598158
 H          2.0862129222       -1.2031629691        1.0688397354
 N          4.1410347460       -0.3487352393       -0.3068947113
 S          3.9444786997        0.8749669383        0.8201844327
 O          5.2187146923        1.5603965487        0.8263305142
 O          3.5178870757        0.3233531900        2.0796252338
 C          2.6955795282        1.9338934476        0.1149802754
 C          3.1018424874        2.8478279008       -0.8393445081
 C          2.1528295944        3.6421627984       -1.4602403179
 C          0.8141040215        3.5037216674       -1.1249901251
 C          0.4250262859        2.5839428476       -0.1650734208
 C          1.3691062078        1.7880365558        0.4650948559
 H          1.0756987462        1.0704688030        1.2155609019
 H         -0.6135083405        2.4688972332        0.1016261074
 H          0.0697307482        4.1154008552       -1.6101473760
 H          2.4560723937        4.3623243657       -2.2029721916
 H          4.1533301355        2.9303876162       -1.0626283837
 H          4.8311673450       -0.0878768043       -0.9967431713
 H          3.7044927748       -0.9349179069       -2.8669522535
 H          1.7018736076       -2.0682851265       -3.7552193919
 H         -0.1276483642       -2.7307336818       -2.2412447161
 H          0.0890362236       -2.1649987629        1.4851525297
 C         -0.5026424704       -3.9138589234        0.4181083623
 C          0.4763832232       -4.8363747296        1.0776608785
 C         -0.8841576718       -4.6360308208        1.6736400878
 H         -1.6021457851       -5.4396271409        1.6073774153
 H         -0.9622940255       -4.0555918679        2.5817375158
 H          0.6958211638       -5.7799962841        0.6024007007
 H          1.3212409889       -4.3909481790        1.5818904080
 H         -0.9648879109       -4.2439271044       -0.5025522128
