  62
        -98.94360972
 C          1.8028316347       -0.8637058589       -0.8186166876
 C          2.0094003251       -0.4045590805        0.5046132205
 C          3.4082119708       -0.3721918827        0.9563009428
 C          4.3806343516       -0.7883577049        0.1246063357
 C          5.8482883700       -0.7554953982        0.4368674030
 C          6.4838982166        0.5641989935       -0.0227141031
 C          5.7158988130        1.8084607458        0.4235475275
 H          6.2721866076        2.6784829703        0.0677472270
 H          4.7428718972        1.8247420533       -0.0729759233
 C          5.5107517799        1.9180717126        1.9408837058
 H          5.7317836689        2.9417423897        2.2504488703
 H          6.2145196469        1.2646355737        2.4577688673
 C          4.0892270181        1.6067961381        2.4129727832
 H          3.3728023300        2.1916400359        1.8303435553
 H          4.0004757336        1.9247720595        3.4551890758
 C          3.6724838019        0.1320777214        2.3470218554
 H          4.4216425962       -0.4852187726        2.8467609584
 H          2.7259450273        0.0306483584        2.8856132794
 H          7.5049908411        0.6076886079        0.3605772046
 H          6.5307480160        0.5643245995       -1.1142569052
 H          5.9899502895       -0.8854976403        1.5079310436
 H          6.3302942096       -1.5822857918       -0.0875748097
 O          4.1386024976       -1.2460692400       -1.1309916815
 C          2.8501225649       -1.2805840731       -1.6389955390
 O          2.7693013822       -1.6934233619       -2.8141460600
 H         -2.0975500397       -0.1616266482       -0.4790930217
 C         -1.5084154097        0.6707382876       -0.8234213748
 C         -0.2311800174        0.4621483950       -1.3174543760
 C          0.4951194718        1.5598930278       -1.7730288148
 C         -0.0384095196        2.8322118896       -1.7159710752
 C         -1.3111581649        3.0374899705       -1.2122753815
 C         -2.0488490459        1.9487901071       -0.7646304429
 N         -3.3248520315        2.1301369411       -0.2188809353
 S         -4.5139648907        0.9693418972       -0.3568386930
 O         -4.4976266748        0.3359255633       -1.6550084094
 O         -5.7352646999        1.6660277823       -0.0120992559
 C         -4.1467050690       -0.2233199120        0.9131382578
 C         -4.4146254799       -1.5558563340        0.6689901514
 C         -4.1555521047       -2.4861534906        1.6630401795
 C         -3.6370842036       -2.0689804352        2.8790424137
 C         -3.3788838748       -0.7265299695        3.1102439023
 C         -3.6383286348        0.2089681278        2.1215788691
 H         -3.4404785470        1.2576596148        2.2676533246
 H         -2.9711005720       -0.4062324984        4.0554778331
 H         -3.4308034825       -2.7946841454        3.6499835189
 H         -4.3554149136       -3.5310327062        1.4852364246
 H         -4.8072554503       -1.8365643762       -0.2957019998
 H         -3.6888889962        3.0701594370       -0.2543127241
 H         -1.7273490279        4.0321262047       -1.1620310840
 H          0.5394257372        3.6737245172       -2.0681466422
 H          1.4897744683        1.3999439338       -2.1678112212
 C          0.3955935544       -0.9091921992       -1.3855668701
 H          0.5002614163       -1.1837588498       -2.4457834784
 C         -0.4117250326       -1.9806670806       -0.6822792357
 C         -1.5327570034       -2.6736452054       -1.3946842832
 C         -0.2549938033       -3.4055475191       -1.1171525324
 H         -0.2563039328       -4.1781368688       -0.3632649977
 H          0.4157505411       -3.6005555624       -1.9415245913
 H         -1.7416357742       -2.3749596546       -2.4110984327
 H         -2.4110399673       -2.9438098803       -0.8284125350
 H         -0.5207986640       -1.7899690071        0.3794768207
 O          1.0782122961       -0.0399008018        1.2678240485
