  62
        -98.93823375
 C          1.8208089918        1.6094184116        0.0853024415
 C          1.8607236857        0.6172251262       -0.9223129281
 C          2.8681751429       -0.4482875852       -0.7553186253
 C          3.6489663489       -0.4608855649        0.3380209549
 C          4.7682128763       -1.4046936726        0.7036210264
 C          4.5975575356       -2.8913775688        0.3730788470
 C          3.1677737197       -3.4272647591        0.5345524248
 H          3.1935120333       -4.3193507919        1.1628928755
 H          2.5480554103       -2.6847073229        1.0397778037
 C          2.5202865302       -3.8047434100       -0.7993175596
 H          1.7057168390       -4.5066137864       -0.6105799124
 H          3.2589899996       -4.3211925263       -1.4160672849
 C          1.9402436681       -2.6332134722       -1.5890887718
 H          1.5871760104       -3.0153465624       -2.5498928179
 H          1.0706052187       -2.2266643075       -1.0656451820
 C          2.9162950584       -1.4746652348       -1.8517930204
 H          3.9277406926       -1.8407118408       -2.0112404710
 H          2.5896705027       -0.9584538961       -2.7586359287
 H          5.2706205013       -3.4378547501        1.0362405348
 H          4.9393017060       -3.0814906440       -0.6432553241
 H          5.6840167137       -1.0365082258        0.2309136378
 H          4.8973056072       -1.2835799365        1.7822125501
 O          3.5383403866        0.4856392975        1.3132824305
 C          2.6526557475        1.5390418091        1.2068914907
 O          2.6969465946        2.3412147164        2.1609877727
 H         -0.8986161767        1.3477829826       -1.3723328226
 C         -1.3076335716        1.6933858276       -0.4348311139
 C         -0.5126360152        2.4516601784        0.4133045244
 C         -1.0391956611        2.8550091856        1.6349598233
 C         -2.3340131500        2.5189544368        1.9902179402
 C         -3.1291563595        1.7758600914        1.1360838546
 C         -2.6049712335        1.3515201328       -0.0790554616
 N         -3.3984998719        0.5934699153       -0.9624217807
 S         -4.1174365414       -0.8151490820       -0.4227934429
 O         -4.6731409914       -1.4369542527       -1.6019908775
 O         -5.0483432697       -0.4968742399        0.6302628321
 C         -2.7920606882       -1.8195485416        0.2216896672
 C         -2.2786734983       -2.8281171915       -0.5687884947
 C         -1.2306142192       -3.5931674780       -0.0844303801
 C         -0.7032051191       -3.3259134258        1.1696657571
 C         -1.2233932531       -2.3031555540        1.9474474715
 C         -2.2818844372       -1.5435329878        1.4748594831
 H         -2.7173513065       -0.7507062027        2.0605979858
 H         -0.8091483547       -2.0935041864        2.9209430924
 H          0.1180937390       -3.9167020145        1.5438368134
 H         -0.8277632971       -4.3907466228       -0.6877583262
 H         -2.7169697164       -3.0011717589       -1.5384365224
 H         -2.9432463682        0.4209589095       -1.8478439878
 H         -4.1393395687        1.5057894467        1.3985358195
 H         -2.7315816765        2.8441772060        2.9398340073
 H         -0.4205478465        3.4274873942        2.3111176113
 C          0.9007001950        2.8202621415        0.0311420325
 H          1.2817331644        3.5081811305        0.7975434111
 C          0.9480989053        3.5287919910       -1.3091050805
 C          0.4922048989        4.9531497155       -1.3919387832
 C          1.9483032699        4.6227775591       -1.5229101830
 H          2.4143393870        4.7125817055       -2.4927559452
 H          2.6038885643        4.8695299835       -0.7002023247
 H          0.1602956915        5.4253700702       -0.4795441069
 H         -0.0445718603        5.2725851906       -2.2720263181
 H          0.7369840498        2.8824263734       -2.1503955050
 O          1.1172556287        0.6075080494       -1.9397161629
