  62
        -98.93654875
 C         -2.1458153184       -0.9550536219       -0.0835858765
 C         -2.9021425655       -0.2779987501        0.9007551262
 C         -3.7453787200        0.8249349795        0.4207902245
 C         -3.7270787382        1.1559604581       -0.8831384572
 C         -4.4807002568        2.2855409501       -1.5344039700
 C         -6.0173038104        2.1691856322       -1.5326358930
 C         -6.7043570002        2.8831356889       -0.3619250931
 H         -7.6104507218        3.3684552425       -0.7302144878
 H         -6.0489690381        3.6769191812       -0.0011774601
 C         -7.1216769818        1.9920193714        0.8119817652
 H         -8.0355575371        1.4561240290        0.5457393899
 H         -7.3566460889        2.6416798888        1.6579218329
 C         -6.0953912370        0.9504824582        1.2582395200
 H         -6.0762798154        0.1238217458        0.5440490263
 H         -6.4284877911        0.5286935347        2.2086707313
 C         -4.6586964231        1.4867739177        1.4112884384
 H         -4.2732118386        1.2421507638        2.4033756529
 H         -4.6365983655        2.5691418247        1.2920691157
 H         -6.3024513301        1.1178535813       -1.5589970596
 H         -6.3688795456        2.6228020242       -2.4605985936
 H         -4.1883394124        3.2235599954       -1.0567586493
 H         -4.1265992755        2.3124644306       -2.5668831738
 O         -2.9537562977        0.5017771532       -1.7926361196
 C         -2.1581981388       -0.5735136679       -1.4254275233
 O         -1.5202269613       -1.0847971881       -2.3637845282
 H          0.0540674805        0.1445835331        0.7653045616
 C          0.7002171313       -0.5987833405        0.3130366079
 C          0.1766243392       -1.8480563475        0.0021176780
 C          1.0220389487       -2.7954302896       -0.5598748328
 C          2.3463494419       -2.4873209336       -0.8203915295
 C          2.8565449484       -1.2366693600       -0.5268271411
 C          2.0238334721       -0.2849843156        0.0477175942
 N          2.5323033879        0.9937598440        0.3427628323
 S          3.9118397176        1.0812810302        1.2988512754
 O          3.9974206856       -0.0406772621        2.2051900207
 O          3.8694005456        2.3945517043        1.9045390790
 C          5.2523083074        1.0245259063        0.1288882181
 C          5.2765420639        1.9671796251       -0.8802695610
 C          6.3180208313        1.9417617549       -1.7939598630
 C          7.3133897814        0.9822550786       -1.6815716881
 C          7.2766022837        0.0453509741       -0.6602241205
 C          6.2366720791        0.0641013380        0.2562997586
 H          6.1622064700       -0.6478099168        1.0627255739
 H          8.0513832425       -0.6994805764       -0.5745839795
 H          8.1222710719        0.9648086364       -2.3947924061
 H          6.3496366555        2.6683780559       -2.5898364331
 H          4.4856474535        2.6969703429       -0.9303673322
 H          1.8314016615        1.6357210981        0.6842063268
 H          3.8845727850       -0.9907153712       -0.7367047942
 H          2.9893996724       -3.2320786809       -1.2637492466
 H          0.6433656540       -3.7756294387       -0.7981674185
 C         -1.2704954197       -2.1222042876        0.3319299093
 H         -1.3609002698       -2.1795757726        1.4276875755
 C         -1.7955626010       -3.4107418862       -0.2665622993
 C         -1.6131750232       -4.7116075920        0.4549277758
 C         -2.9696806430       -4.0797219946        0.3809632948
 H         -3.7187882847       -4.5328620191       -0.2508178510
 H         -3.3711980678       -3.6202760130        1.2726391790
 H         -1.0957785982       -4.6899121976        1.4022441427
 H         -1.4333536290       -5.6031262553       -0.1266999163
 H         -1.7532364477       -3.4119639690       -1.3499554193
 O         -2.8645372673       -0.5723439218        2.1271229263
