  62
        -98.94613478
 C         -1.4155890418       -0.8534304889       -0.0793082750
 C         -2.5001184898       -0.8375103130        0.8357530778
 C         -3.4420005168        0.2789364707        0.7164215803
 C         -3.2268049482        1.2324860870       -0.2076762964
 C         -4.0738283171        2.4557047471       -0.4332799647
 C         -5.2990075976        2.2138759711       -1.3256884833
 C         -6.4284103978        1.4130020038       -0.6762569070
 H         -6.6864878675        1.8642813076        0.2822825195
 H         -7.3010276078        1.5057946631       -1.3258043371
 C         -6.1155728719       -0.0768397660       -0.4791302367
 H         -5.2640671478       -0.3552033432       -1.1042331634
 H         -6.9668895971       -0.6747749041       -0.8120234246
 C         -5.8186235966       -0.4763898790        0.9662352313
 H         -5.5760407461       -1.5418567934        0.9845498613
 H         -6.7093176933       -0.3230262076        1.5794931616
 C         -4.6495405612        0.2852278459        1.6046216674
 H         -4.9467983645        1.3084856728        1.8343264229
 H         -4.3786304283       -0.2180253721        2.5360919287
 H         -5.6925586114        3.1927322080       -1.6094941485
 H         -4.9718518159        1.7100799035       -2.2381735787
 H         -4.3951677614        2.8592698360        0.5276284023
 H         -3.4301230363        3.1922338780       -0.9197876417
 O         -2.1679204501        1.1962187034       -1.0558403633
 C         -1.2424317901        0.1598356713       -1.0238073375
 O         -0.3471411916        0.2741838980       -1.8830743870
 O         -2.6725760721       -1.7263846362        1.7135459383
 C         -0.4453559687       -2.0110926832        0.0516392653
 C          0.7187919085       -1.6923249666        0.9638264812
 C          1.3100343334       -2.7015633541        1.7173913379
 C          2.3858892841       -2.4278615773        2.5409347029
 C          2.9006304541       -1.1462973254        2.6228652764
 C          2.3158430099       -0.1291572506        1.8777919926
 C          1.2318837768       -0.4083466654        1.0559698038
 H          0.7809526494        0.3970160857        0.4987057263
 N          2.8002188060        1.1846191294        1.9587130604
 S          2.8896322077        2.1374990743        0.5845316126
 O          3.8113048736        3.1922498010        0.9539965503
 O          1.5739439908        2.5664504725        0.1852405171
 C          3.6535522712        1.0818416442       -0.6325000299
 C          2.9083218529        0.4829755291       -1.6264979241
 C          3.5471332679       -0.3809223301       -2.5045814911
 C          4.9036666664       -0.6305500572       -2.3748747185
 C          5.6385615709       -0.0149437017       -1.3723647747
 C          5.0087918404        0.8469075484       -0.4909834361
 H          5.5444181250        1.3567306136        0.2934798839
 H          6.6950951411       -0.2059506250       -1.2754095734
 H          5.3904017326       -1.3061579016       -3.0604997566
 H          2.9714710294       -0.8541699194       -3.2844830854
 H          1.8516879794        0.6867822701       -1.7086789316
 H          3.6238594007        1.2940589596        2.5323450278
 H          3.7387132570       -0.9285888078        3.2668227255
 H          2.8305009270       -3.2188065420        3.1250457657
 H          0.9106127732       -3.7027078798        1.6660035532
 H         -1.0219871250       -2.8168564592        0.5284891634
 C          0.0838450504       -2.5218184863       -1.2757837705
 C          0.3982779542       -3.9762718194       -1.4481627206
 C         -0.7914149391       -3.3799165200       -2.1373775627
 H         -0.7602786050       -3.2348816428       -3.2065637269
 H         -1.7744769830       -3.6236539444       -1.7608180972
 H          1.2555595805       -4.2479593285       -2.0441443986
 H          0.2137182832       -4.6371298670       -0.6153341109
 H          0.7216489274       -1.8068481167       -1.7785831914
