  62
        -98.94535082
 C         -1.9285022044       -1.0257229615       -0.0578420461
 C         -1.4287432580       -2.0344248692       -0.9201342496
 C         -0.2887037238       -2.8097404722       -0.4185358364
 C          0.2194129705       -2.5380872295        0.7967665533
 C          1.3795641771       -3.2358215333        1.4523116495
 C          2.7488141782       -2.6874153520        1.0291541725
 C          3.1905220016       -3.0648867713       -0.3848744902
 H          4.2494400500       -2.8129344598       -0.4680093979
 H          3.0995879760       -4.1432948512       -0.5206948128
 C          2.4278858341       -2.3405605518       -1.5026325991
 H          1.9320658806       -1.4512669992       -1.1040258320
 H          3.1340296062       -1.9816555421       -2.2556935620
 C          1.3952027202       -3.1992130109       -2.2341915419
 H          1.9030434834       -3.9992580634       -2.7785939496
 H          0.8892870502       -2.5625155025       -2.9651352284
 C          0.3273414488       -3.8279668998       -1.3292385741
 H          0.7594251616       -4.6445805175       -0.7506407908
 H         -0.4652148695       -4.2296911243       -1.9659575214
 H          3.4880124648       -3.0762218764        1.7329019368
 H          2.7355947648       -1.5992903584        1.1234219946
 H          1.2655686266       -3.0854220510        2.5277121013
 H          1.3322994904       -4.3047539230        1.2426437939
 O         -0.2956701379       -1.5741443675        1.6011707662
 C         -1.3478271159       -0.7693034296        1.1845833689
 O         -1.6541924736        0.1146951285        2.0067087832
 O         -1.9111086851       -2.2699838486       -2.0606784505
 C         -3.0121038101       -0.1043648480       -0.5927465793
 C         -2.5667617066        1.3247045483       -0.3954886712
 C         -3.3192583551        2.3010148301        0.2421990302
 C         -2.7984003750        3.5711329618        0.4243127821
 C         -1.5216999516        3.8864320060       -0.0018773201
 C         -0.7597453930        2.9157278476       -0.6464071810
 C         -1.3006057254        1.6589074682       -0.8626370015
 H         -0.7106518208        0.9099392321       -1.3701320425
 N          0.5385848801        3.2139788375       -1.0881733015
 S          1.7985603693        2.1412643359       -1.2417023123
 O          2.8726886192        2.9370424615       -1.7958275837
 O          1.3945133598        0.9977679533       -2.0212952138
 C          2.2944151511        1.5970951434        0.3883264453
 C          3.6477714429        1.4206729997        0.6088307684
 C          4.0777602874        0.9571671274        1.8414222302
 C          3.1507746606        0.6749570993        2.8340365696
 C          1.7976983288        0.8596462036        2.5998194776
 C          1.3615194239        1.3238876138        1.3676990986
 H          0.3073565678        1.4553894232        1.1816955616
 H          1.0613533149        0.6334175072        3.3547916192
 H          3.4820559362        0.3064037539        3.7919821556
 H          5.1306062913        0.8117346604        2.0219260065
 H          4.3324926617        1.6546184390       -0.1900348660
 H          0.8747021844        4.1334264501       -0.8449314543
 H         -1.1112563769        4.8704694581        0.1653749523
 H         -3.3895061540        4.3224159922        0.9256648460
 H         -4.3001789278        2.0638705035        0.6194675374
 H         -3.0266112949       -0.3063174470       -1.6777477240
 C         -4.4158609859       -0.3884348031       -0.0829080152
 C         -4.7900597877       -1.7472646091        0.4272252310
 C         -4.7194590909       -0.5864520597        1.3709778050
 H         -5.6457605577       -0.1871411651        1.7577770702
 H         -3.8951662990       -0.5331679451        2.0636764668
 H         -5.7595127307       -2.1445449188        0.1659051889
 H         -4.0104410158       -2.4939216652        0.4756205121
 H         -5.1708401623        0.1244527948       -0.6713608711
