  62
        -98.93626984
 C         -1.6521504135       -1.7979279426        0.3925689160
 C         -0.4867900592       -1.5995039035        1.1738384657
 C          0.7159645912       -2.3189634297        0.7243700603
 C          0.6780394936       -3.0616572740       -0.3941018511
 C          1.8284227479       -3.8141330594       -1.0068100023
 C          2.9719146371       -2.9277350230       -1.5403919634
 C          4.1398023546       -2.7508797932       -0.5612047509
 H          4.1440795697       -3.5910374623        0.1345239547
 H          5.0761882771       -2.8016489942       -1.1205854313
 C          4.1588585388       -1.4364349728        0.2254369803
 H          4.8680366317       -1.5504146624        1.0481836694
 H          4.5285110594       -0.6384128476       -0.4227086916
 C          2.8153956479       -0.9719225214        0.7888809542
 H          2.2091866177       -0.5458139466       -0.0151339284
 H          3.0050922403       -0.1599776822        1.4937754646
 C          1.9866730563       -2.0695055488        1.4840850355
 H          1.6947463488       -1.7329840336        2.4809065213
 H          2.5626901362       -2.9883411309        1.5811578496
 H          2.5656303268       -1.9581322835       -1.8328562598
 H          3.3518844024       -3.4046505555       -2.4456217045
 H          2.2230982911       -4.5235590848       -0.2761006908
 H          1.4007456173       -4.3858121627       -1.8328715045
 O         -0.4626175668       -3.2318400757       -1.1170402487
 C         -1.6329049831       -2.5879795323       -0.7588466096
 O         -2.5929270250       -2.8066085856       -1.5283425673
 O         -0.4241405920       -0.8633061140        2.1910267469
 C         -2.9610194489       -1.0643532131        0.6400355358
 C         -2.9849163288        0.1993224503       -0.1850399347
 C         -4.1311075636        0.6173781393       -0.8493340826
 C         -4.1123728566        1.7657765726       -1.6222933155
 C         -2.9488759134        2.4988971065       -1.7690184151
 C         -1.7940693396        2.0850138590       -1.1129069663
 C         -1.8298743052        0.9585146594       -0.3074304647
 H         -0.9328970131        0.6372972054        0.1955718204
 N         -0.5922048900        2.7984998642       -1.2432577456
 S          0.8841131022        2.0188270932       -1.4232617547
 O          1.5652463976        2.7304726552       -2.4868218862
 O          0.7172863781        0.5987985635       -1.6281784807
 C          1.7589965987        2.3351225817        0.0980933304
 C          1.0922653332        2.3927618269        1.3045321433
 C          1.8231833520        2.6103178556        2.4627196680
 C          3.1985969734        2.7675816362        2.3978621850
 C          3.8542178294        2.7136395659        1.1771884906
 C          3.1295553398        2.4947423774        0.0172517985
 H          3.5963432213        2.4502768348       -0.9534431820
 H          4.9239317487        2.8369365879        1.1256264146
 H          3.7614740226        2.9327876142        3.3030405818
 H          1.3105287612        2.6477390073        3.4104132770
 H          0.0234077821        2.2635654928        1.3405301851
 H         -0.6424109390        3.5873896026       -1.8714187929
 H         -2.9282523310        3.3794171758       -2.3932584066
 H         -5.0083996770        2.0824545024       -2.1342282785
 H         -5.0320574270        0.0258393666       -0.7785212421
 H         -3.7528042384       -1.7252520318        0.2513242630
 C         -3.2526117498       -0.8131403450        2.1123863965
 C         -3.1428014821        0.5380578815        2.7456238771
 C         -4.4913447516       -0.0732063132        2.5229708603
 H         -5.0453158633       -0.4332469954        3.3765864358
 H         -5.1061420534        0.3464973857        1.7415604764
 H         -2.7486928196        0.5903671673        3.7485024338
 H         -2.8510677335        1.3665975254        2.1188572773
 H         -2.9646930963       -1.6577204120        2.7288765048
