  62
        -98.93832819
 C          1.9114512042       -1.3400968264       -0.0809981164
 C          2.2087846482       -0.3983456382        0.9310480844
 C          3.5932682997        0.1122568073        0.9679708162
 C          4.4833591118       -0.3248280399        0.0614252992
 C          5.9142620566        0.1056454618       -0.1050877686
 C          6.0246556428        1.2407845054       -1.1370500250
 C          5.8398681285        2.6476636055       -0.5695890271
 H          6.7124930476        2.9092352214        0.0327302945
 H          5.8073854129        3.3379594955       -1.4157132506
 C          4.5819098033        2.8510157898        0.2789252663
 H          3.7305281578        2.3658768655       -0.2025366090
 H          4.3677013735        3.9212706303        0.3084811187
 C          4.7353629526        2.3352636981        1.7176152309
 H          4.4407091540        3.1215299829        2.4160010611
 H          5.7880410442        2.1300841929        1.9113594413
 C          3.8949312249        1.0974731956        2.0648380168
 H          4.3738645970        0.5623661985        2.8916464527
 H          2.9133882979        1.4172736728        2.4284243862
 H          5.2812292417        1.0578207561       -1.9173245879
 H          7.0090947933        1.1928352924       -1.6068880044
 H          6.4570758169       -0.7624122986       -0.4850328921
 H          6.3439091213        0.3972350510        0.8486247247
 O          4.1565342369       -1.2276836936       -0.9026134282
 C          2.8838247723       -1.7515403592       -0.9994281423
 O          2.7382532177       -2.5716217094       -1.9274789281
 O          1.3750362923        0.0205782072        1.7801787780
 C          0.5437301808       -1.9829718008       -0.2581457188
 C         -0.4215969341       -1.0531018547       -0.9533652822
 C         -0.9414019742       -1.3679986999       -2.2031647155
 C         -1.8488467804       -0.5261807647       -2.8233086757
 C         -2.2574649852        0.6439009818       -2.2090460649
 C         -1.7379874778        0.9690397730       -0.9628075345
 C         -0.8332345665        0.1221411863       -0.3409113617
 H         -0.4275905657        0.3840575678        0.6249888467
 N         -2.1641034269        2.1505549432       -0.3193946064
 S         -3.8147082742        2.2407884908       -0.0354122368
 O         -4.4857137989        2.6186750213       -1.2539673303
 O         -3.9730768341        3.1445567846        1.0817613908
 C         -4.2718574921        0.5780803488        0.4212174682
 C         -4.9516792510       -0.2192569067       -0.4765352290
 C         -5.2246259172       -1.5330838178       -0.1310486413
 C         -4.8107656467       -2.0249552645        1.0968214244
 C         -4.1307552994       -1.2100122005        1.9888473371
 C         -3.8532146382        0.1034367570        1.6483316989
 H         -3.3284600764        0.7655295138        2.3186803850
 H         -3.8111648199       -1.5925903437        2.9451034886
 H         -5.0199822424       -3.0495403513        1.3613910577
 H         -5.7539758006       -2.1694116669       -0.8216573389
 H         -5.2550375388        0.2031279780       -1.4202758683
 H         -1.6562366632        2.3308092065        0.5355900576
 H         -2.9689781119        1.3093491424       -2.6709582746
 H         -2.2426631140       -0.7841914313       -3.7944913626
 H         -0.6202446810       -2.2756249081       -2.6932600858
 H          0.7105208095       -2.8441001062       -0.9185076557
 C         -0.0491567996       -2.4863991124        1.0448665686
 C         -1.1306794790       -3.5212662893        0.9960683154
 C          0.2367982839       -3.8880061157        1.4881315233
 H          0.3762618138       -4.0760614391        2.5421530265
 H          0.8638192803       -4.4956772366        0.8516160966
 H         -1.9352260700       -3.4567719175        1.7115918784
 H         -1.4333833023       -3.8818446042        0.0248870540
 H         -0.1116052287       -1.7264450865        1.8118892784
