  62
        -98.94131670
 C         -0.9266025294       -1.0606739996        0.7570829998
 C         -1.5305846095       -0.8739397207       -0.5083355703
 C         -2.2464471498        0.3986005390       -0.7052735811
 C         -2.2559501299        1.3114079397        0.2802815782
 C         -2.8732791502        2.6884447096        0.2780589872
 C         -4.2759056603        2.8342255489       -0.3284260728
 C         -5.1880913100        1.6105515488       -0.1587742918
 H         -4.7463427498        0.9094598994        0.5511770187
 H         -6.1442189900        1.9362395089        0.2549202980
 C         -5.4701149399        0.8891309078       -1.4789161413
 H         -6.3766318898        0.2898676776       -1.3651069308
 H         -5.6671474101        1.6362965472       -2.2508235518
 C         -4.3659767398       -0.0501785924       -1.9640118107
 H         -4.6351198697       -0.3985418431       -2.9641056204
 H         -4.3191311895       -0.9321252319       -1.3194939900
 C         -2.9546965399        0.5577398279       -2.0187285112
 H         -2.3659781398       -0.0090922925       -2.7457795208
 H         -2.9815176501        1.5969146677       -2.3391472620
 H         -4.1903601504        3.0680832981       -1.3888421429
 H         -4.7369423404        3.7012633191        0.1478054466
 H         -2.1889230404        3.3678524594       -0.2399622133
 H         -2.8971316302        2.9910651004        1.3277674370
 O         -1.6326387498        1.1014790107        1.4749576083
 C         -0.9496850295       -0.0734381789        1.7391941191
 O         -0.4133848994       -0.1155923480        2.8649340391
 O         -1.4768212494       -1.7263666813       -1.4328560796
 C         -0.1394301991       -2.3262018692        1.0449482507
 C          1.0158937209       -2.4278359997        0.0777280507
 C          1.3942326211       -3.6069073601       -0.5508035485
 C          2.4572757111       -3.6148184105       -1.4378184985
 C          3.1521573308       -2.4544611105       -1.7257552494
 C          2.7879806606       -1.2715717802       -1.0924328303
 C          1.7443672606       -1.2743111797       -0.1831180002
 H          1.4682137305       -0.3535550594        0.3102681492
 N          3.4701510603       -0.0697109002       -1.3376824812
 S          2.6038638000        1.3615702296       -1.4018067722
 O          1.2862184200        1.1748505289       -1.9630444519
 O          3.4736222297        2.2695650892       -2.1225105229
 C          2.4889411400        1.9046683308        0.2884114375
 C          3.6028503200        1.8270645516        1.1002818474
 C          3.5063446000        2.2761413625        2.4075004971
 C          2.3088085799        2.7954426426        2.8758480168
 C          1.2019719999        2.8737207318        2.0455537568
 C          1.2926898099        2.4259208008        0.7379924272
 H          0.4518676898        2.4488609602        0.0613174172
 H          0.2659002998        3.2638966018        2.4114879666
 H          2.2327591599        3.1371333033        3.8959630566
 H          4.3627858701        2.2158206232        3.0596518771
 H          4.5146220801        1.4135411715        0.7027944177
 H          4.1741886903       -0.1160787806       -2.0601554212
 H          3.9656132807       -2.4588412009       -2.4352147395
 H          2.7389287212       -4.5362452908       -1.9245999779
 H          0.8514064713       -4.5170869500       -0.3552316478
 H          0.2746120110       -2.2021667384        2.0568031606
 C         -1.0476801088       -3.5378371995        1.0330811416
 C         -0.7334843385       -4.7267174488        1.8895452025
 C         -1.8790652386       -3.8288586688        2.2451337119
 H         -2.8857903686       -4.1929981791        2.1051065622
 H         -1.7683422087       -3.1663266081        3.0914308414
 H         -0.9569098783       -5.7112568691        1.5069633832
 H          0.1534033816       -4.6810364881        2.5031855824
 H         -1.4998073388       -3.7078714703        0.0627391218
