  62
        -98.94763473
 C          0.7697551073        1.2683977360        0.0520932328
 C          1.4841580157        0.6137227459        1.0825178445
 C          2.4019354254       -0.4484253300        0.6506834598
 C          2.4649453637       -0.7723004411       -0.6539311106
 C          3.4315433450       -1.7546272452       -1.2475284081
 C          4.7311405178       -1.0561830712       -1.6756801206
 C          5.3322129958       -0.1455992814       -0.6048105658
 H          4.6559443861        0.6941270526       -0.4285966380
 H          6.2571059112        0.2683115927       -1.0124350316
 C          5.6303829760       -0.8433852572        0.7295981734
 H          6.6215218199       -0.5379238781        1.0714861807
 H          5.6566592231       -1.9240028837        0.5852532281
 C          4.6485468277       -0.5067643768        1.8533826279
 H          4.5511056732        0.5781570811        1.9435142879
 H          5.0663316741       -0.8762309675        2.7938288714
 C          3.2444688412       -1.1069132703        1.7065228966
 H          2.7157064692       -0.9542881927        2.6521367125
 H          3.3268944745       -2.1803607574        1.5263742039
 H          4.5219711743       -0.4491552436       -2.5594218660
 H          5.4585078756       -1.8211452424       -1.9533298899
 H          3.6494701360       -2.5337484758       -0.5203438838
 H          2.9695356302       -2.2020366216       -2.1280682155
 O          1.6905638564       -0.1855732882       -1.6010980596
 C          0.8466257795        0.8670091881       -1.2816130368
 O          0.2318648300        1.3467167777       -2.2522681526
 H         -1.5297939935        0.2057305639        0.5034997692
 C         -2.1037638704        1.0046731521        0.0569513527
 C         -1.5219047967        2.2575847530       -0.0873363506
 C         -2.2770794318        3.2802968669       -0.6473941491
 C         -3.5761910631        3.0442592325       -1.0618242363
 C         -4.1494692265        1.7947466078       -0.9208938991
 C         -3.4034765597        0.7646985245       -0.3571350128
 N         -3.9440751352       -0.5196370235       -0.2371139656
 S         -3.3643476221       -1.6434510413        0.8414965600
 O         -4.3757628483       -2.6798607603        0.8441710264
 O         -3.0651637970       -1.0596212999        2.1285123397
 C         -1.8911012887       -2.2936627890        0.0850423172
 C         -0.7869482082       -2.5548256488        0.8707368427
 C          0.3240856503       -3.1450920366        0.2909229345
 C          0.3135047141       -3.4579635342       -1.0588836306
 C         -0.7969845319       -3.1743068305       -1.8382670962
 C         -1.9143361964       -2.5922563654       -1.2625011071
 H         -2.7975361822       -2.3664223693       -1.8365842141
 H         -0.7966318289       -3.4080128884       -2.8907767230
 H          1.1761298928       -3.9271287711       -1.5043929442
 H          1.1888439298       -3.3590675953        0.8975682806
 H         -0.8130922892       -2.2848213875        1.9152206461
 H         -4.9258032479       -0.6174244771       -0.4442621537
 H         -5.1613702744        1.6106949233       -1.2474653725
 H         -4.1511580045        3.8460880977       -1.4996395582
 H         -1.8481846522        4.2619812629       -0.7636597257
 C         -0.1089667385        2.4537957003        0.4017889985
 H         -0.1333745495        2.4885423687        1.5021424445
 C          0.5312522957        3.7292089930       -0.1109241926
 C          0.3667164383        5.0198077171        0.6330381455
 C          1.6868191128        4.3112792133        0.6448365475
 H          2.5083008682        4.7359633914        0.0874447977
 H          1.9888863440        3.8056846580        1.5506547457
 H         -0.2227020144        5.0046396344        1.5374297265
 H          0.2841659023        5.9352155442        0.0665802863
 H          0.5745279706        3.7626283393       -1.1942143112
 O          1.3735505622        0.9152727562        2.3027407641
