  62
        -98.94004464
 C         -2.4291932284       -0.9367066512        0.0810682818
 C         -3.6756169533       -0.8563338467        0.7556582907
 C         -4.7262809348       -0.0703414647        0.0967680085
 C         -4.4557535712        0.5336388887       -1.0742906536
 C         -5.4129239570        1.4078776199       -1.8303942391
 C         -5.2632758678        2.8799767784       -1.4217541108
 C         -5.2665665165        3.1045405473        0.0903717892
 H         -4.3737397917        2.6449502576        0.5206569030
 H         -5.1864960016        4.1805281141        0.2593663061
 C         -6.5107412911        2.5654724602        0.8101108248
 H         -7.3133854365        2.4012231889        0.0902462678
 H         -6.8600064377        3.3199200730        1.5182089391
 C         -6.2759945585        1.2814494590        1.6079746160
 H         -5.4121021082        1.4106072700        2.2648776817
 H         -7.1483833093        1.1124473341        2.2448810882
 C         -6.0636148194        0.0092356188        0.7778069191
 H         -6.1036851971       -0.8436029919        1.4618447613
 H         -6.8722382677       -0.0952374461        0.0513777716
 H         -6.0755475421        3.4487578066       -1.8779786359
 H         -4.3184340738        3.2555810912       -1.8212332454
 H         -5.1976173566        1.3122942194       -2.8959826037
 H         -6.4302751781        1.0693830859       -1.6435410974
 O         -3.2470577979        0.4519139446       -1.6826426685
 C         -2.1984607240       -0.2720734491       -1.1248291616
 O         -1.1550541290       -0.2356216412       -1.8016273470
 H          0.9333507958       -1.9480972002       -0.7852030892
 C          1.0110767401       -1.1755951925       -0.0356123289
 C         -0.0545682893       -0.9380598355        0.8178914213
 C          0.0607624131        0.0818386709        1.7576988732
 C          1.2119498903        0.8424159709        1.8386100477
 C          2.2706364380        0.6060939124        0.9794270381
 C          2.1635219108       -0.4045274622        0.0342127504
 N          3.2307209338       -0.6332600126       -0.8530944675
 S          4.7456499486       -0.9271368271       -0.1959827338
 O          5.4569022001       -1.6921180682       -1.1972190122
 O          4.6428798925       -1.5263072518        1.1152116743
 C          5.4840949725        0.6879918758       -0.0697291236
 C          5.6058837463        1.4406136372       -1.2213306384
 C          6.1868906358        2.6960591709       -1.1415144390
 C          6.6363228706        3.1736863360        0.0807339397
 C          6.5096372626        2.4044565131        1.2272144391
 C          5.9282928705        1.1480843529        1.1543085995
 H          5.8040989126        0.5165130692        2.0194782900
 H          6.8599165411        2.7775172563        2.1762391013
 H          7.0881774115        4.1512916154        0.1397174184
 H          6.2869072183        3.2973031809       -2.0308598354
 H          5.2473508507        1.0316355535       -2.1512960683
 H          3.0150513734       -1.2999694336       -1.5799718759
 H          3.1695588902        1.1987445650        1.0308793094
 H          1.2861151811        1.6285671399        2.5746290258
 H         -0.7686284036        0.2724128318        2.4252087012
 C         -1.3291239287       -1.7392490297        0.7540787687
 H         -1.6909707662       -1.8800340428        1.7859035618
 C         -1.1221764255       -3.1337468780        0.1808828753
 C         -2.2921716889       -3.9506860504       -0.2771065715
 C         -1.2867027261       -3.4585818557       -1.2723839454
 H         -0.6098022800       -4.1769101479       -1.7127020469
 H         -1.5687645335       -2.6608765595       -1.9413398413
 H         -2.3115238107       -5.0034807864       -0.0391023939
 H         -3.2639652494       -3.4793015575       -0.2586135776
 H         -0.3379064238       -3.6687828147        0.7094287516
 O         -3.8984738950       -1.4172482545        1.8616694219
