  62
        -98.94540903
 C          2.5363387296        0.3930825336        0.0980370930
 C          2.4536871352       -0.5544210070        1.1531038358
 C          2.3462028091       -1.9616225951        0.7629476583
 C          2.3569459324       -2.2904324689       -0.5409476762
 C          2.2259219530       -3.6779460785       -1.1063000198
 C          0.7680168991       -4.1422594529       -1.2347027454
 C          0.0874487478       -4.5143144069        0.0835245823
 H         -0.8304812713       -5.0475945967       -0.1718163197
 H          0.7236207762       -5.2043717956        0.6395521588
 C         -0.2742059591       -3.3118446329        0.9669095176
 H         -1.2930239057       -3.4349883848        1.3432823679
 H         -0.2697223314       -2.4036329495        0.3579297869
 C          0.6360228776       -3.1180195150        2.1807456550
 H          0.3227629431       -2.2097424395        2.7018172667
 H          0.5144396732       -3.9605623971        2.8655905375
 C          2.1258669685       -2.9766547750        1.8436087162
 H          2.6476426656       -2.6278503886        2.7382860242
 H          2.5394783947       -3.9407514815        1.5491372538
 H          0.1925690959       -3.3524457274       -1.7257804369
 H          0.7590211294       -5.0187943775       -1.8873034110
 H          2.7848257577       -4.3844890299       -0.4918221248
 H          2.6704511265       -3.6535898310       -2.1036557192
 O          2.5024705295       -1.3637794720       -1.5210673118
 C          2.5277843535       -0.0061922843       -1.2382589209
 O          2.5630791498        0.7068429368       -2.2645444602
 O          2.4617663012       -0.2295759338        2.3705218271
 C          2.4712652068        1.8548849881        0.5179571304
 C          1.0078148108        2.2255412628        0.5762236775
 C          0.3957077240        2.6198304867        1.7596523531
 C         -0.9738577207        2.8174715946        1.8152203788
 C         -1.7635843040        2.5890045930        0.7015885349
 C         -1.1565105261        2.2019417775       -0.4850680215
 C          0.2176893171        2.0575037598       -0.5525038794
 H          0.6718008014        1.7445008751       -1.4815774143
 N         -1.9714167016        1.8394704929       -1.5967019134
 S         -2.2871010613        0.1768037083       -1.5352595366
 O         -1.1059482750       -0.5818418305       -1.1852050526
 O         -2.9030432300       -0.1568426861       -2.8016505595
 C         -3.4855655842        0.0806227441       -0.2259916348
 C         -3.0812302719       -0.3131497602        1.0340672975
 C         -4.0147641294       -0.3368314463        2.0584495098
 C         -5.3266299442        0.0346202553        1.8055369271
 C         -5.7163909226        0.4272632944        0.5334971933
 C         -4.7880302888        0.4537754649       -0.4948528708
 H         -5.0430019983        0.7476008905       -1.4995038658
 H         -6.7375488050        0.7143844295        0.3412699951
 H         -6.0494114122        0.0171746678        2.6059077390
 H         -3.7114391874       -0.6404447518        3.0474947790
 H         -2.0498272003       -0.5908417386        1.1862381400
 H         -1.5131726243        2.0263025638       -2.4799401099
 H         -2.8350008640        2.6990990724        0.7419819200
 H         -1.4340921588        3.1225398612        2.7421965275
 H          0.9978652408        2.7392765079        2.6481786033
 H          2.8683837495        1.8874478839        1.5415434503
 C          3.2669893951        2.8148334837       -0.3389634183
 C          3.6415995952        4.1493623150        0.2313908774
 C          4.6937695533        3.1048032329        0.0142834092
 H          5.4027922674        3.2402124071       -0.7883536879
 H          5.1052240225        2.6070779451        0.8801654684
 H          3.6275530026        5.0087313313       -0.4210006725
 H          3.3417426504        4.3615463590        1.2463002403
 H          3.0176538435        2.7670919502       -1.3906680073
