  62
        -98.93806411
 C          2.5153861404        1.1980342896        0.2553258187
 C          2.6992864701        0.3727819087       -0.8772943508
 C          3.5694697601       -0.8084998511       -0.7031217102
 C          4.1239664405       -1.0336327503        0.5026260198
 C          4.9910284006       -2.1898091499        0.9237407103
 C          4.1825364707       -3.4769773198        1.1599640615
 C          3.1066230404       -3.7645886905        0.1152589421
 H          2.4223254704       -2.9153310406        0.0607330017
 H          2.5272374505       -4.6239445103        0.4635807629
 C          3.6267057900       -4.0876819216       -1.2834537978
 H          2.7605159098       -4.3335152220       -1.9029854974
 H          4.2611291700       -4.9754080215       -1.2318961774
 C          4.4094250597       -2.9731084821       -1.9796935689
 H          4.5186123794       -3.2600465428       -3.0296316287
 H          5.4150124199       -2.8924711018       -1.5759865693
 C          3.7247339097       -1.6095357021       -1.9733376997
 H          2.7140331196       -1.7135672424       -2.3841523193
 H          4.2539969395       -0.9523521926       -2.6740070203
 H          3.6871626810       -3.3897043791        2.1303350416
 H          4.8769885908       -4.3170086597        1.2111888119
 H          5.4661391009       -1.9009705292        1.8638583800
 H          5.7767310004       -2.3518194405        0.1919720002
 O          3.9080552808       -0.2124627695        1.5714517192
 C          3.1067347208        0.9088458005        1.4828912087
 O          2.9937177511        1.5523652212        2.5475891082
 O          2.1553049297        0.5985720079       -1.9894690808
 C          1.6267717504        2.4235236895        0.1618069780
 C          0.2240896102        2.0323035992       -0.2398121012
 C         -0.5464518300        2.7776433785       -1.1227287715
 C         -1.8367385501        2.3837195083       -1.4333061008
 C         -2.3860840400        1.2441699387       -0.8758266798
 C         -1.6290310897        0.4968215893        0.0169859705
 C         -0.3413350496        0.8999619396        0.3336405398
 H          0.2432074007        0.3185182001        1.0377984000
 N         -2.1766066895       -0.6706904002        0.5831213215
 S         -3.6259597892       -0.5125026096        1.4212145018
 O         -3.7595728690        0.8061128908        1.9969974309
 O         -3.6514846189       -1.6242939290        2.3467342927
 C         -4.8742131296       -0.7641204106        0.1772994824
 C         -4.8645327298       -1.9530354811       -0.5256261667
 C         -5.8364323601       -2.1674668418       -1.4898113262
 C         -6.7976151602       -1.1968011220       -1.7307044066
 C         -6.7953746800       -0.0098791514       -1.0140879275
 C         -5.8250077897        0.2117092593       -0.0491737280
 H         -5.7796856195        1.1204394597        0.5294497413
 H         -7.5435640600        0.7431324684       -1.2025666978
 H         -7.5532199204       -1.3668352825       -2.4813474663
 H         -5.8413453303       -3.0890304322       -2.0492938456
 H         -4.1029315597       -2.6822008309       -0.3046273064
 H         -1.5147491493       -1.1932898198        1.1390516917
 H         -3.3863563800        0.9285468085       -1.1234675493
 H         -2.4214266304        2.9711386978       -2.1245547111
 H         -0.1351278502        3.6675481682       -1.5700192923
 H          1.5800320007        2.8429061102        1.1785275278
 C          2.2521803901        3.4505742288       -0.7601271829
 C          2.0489038601        4.9148322490       -0.5160347139
 C          3.3819593402        4.2876520292       -0.2428856039
 H          4.2052261900        4.5103561087       -0.9048274043
 H          3.6778927606        4.1371952300        0.7856098361
 H          1.9602508499        5.5723072384       -1.3677583544
 H          1.4431696304        5.2025336696        0.3301404361
 H          2.3144840997        3.1029982181       -1.7848036027
