  62
        -98.93915590
 C          1.3678335106        0.7849198198        0.2664842988
 C          1.9195343806       -0.4187618502        0.7753859388
 C          2.9194041705       -1.0837776502       -0.0701897613
 C          3.2098437404       -0.5620180403       -1.2756279514
 C          4.2455846903       -1.1037720903       -2.2166568415
 C          5.6145706203       -0.4543820804       -1.9697030216
 C          6.0412554205       -0.4492998104       -0.5016607516
 H          7.0329522205        0.0056057996       -0.4533484217
 H          5.3650602906        0.1959481796        0.0639494984
 C          6.0824426705       -1.8371092604        0.1533420684
 H          6.1073080804       -2.6092865204       -0.6165056816
 H          7.0058791605       -1.9248368604        0.7296069183
 C          4.9273443006       -2.1181602903        1.1161475385
 H          4.8416451507       -1.2986469103        1.8341751885
 H          5.1678266606       -3.0232074204        1.6801425085
 C          3.5556996905       -2.3354272403        0.4651754586
 H          3.6362645604       -3.0925769003       -0.3175879614
 H          2.8766648805       -2.7085730902        1.2374020187
 H          6.3600115703       -0.9845329004       -2.5653048817
 H          5.5749528104        0.5802442196       -2.3185893116
 H          4.3158493602       -2.1825445503       -2.0896437915
 H          3.9294894802       -0.8873164403       -3.2386528814
 O          2.6097779904        0.5540658898       -1.7610074413
 C          1.6737083005        1.2574577598       -1.0105650512
 O          1.2002091705        2.2477284099       -1.5972267312
 H         -0.9059017695       -0.2041906800       -0.4899120110
 C         -1.4422298594        0.7361776400       -0.4351415809
 C         -0.9208391693        1.7662972300        0.3386985890
 C         -1.6242644393        2.9624535900        0.3947452791
 C         -2.8133700993        3.1160754801       -0.2990321508
 C         -3.3295962594        2.0845634101       -1.0617822107
 C         -2.6262084995        0.8911639801       -1.1364649008
 N         -3.1719910296       -0.1867030999       -1.8828552107
 S         -4.3250571996       -1.0455459699       -1.0164400106
 O         -4.6161355397       -2.2284948998       -1.7940616806
 O         -5.4324859995       -0.1677622298       -0.7406719605
 C         -3.4867792795       -1.4836424399        0.4953543493
 C         -3.4719266893       -0.5779562299        1.5373144993
 C         -2.6984786492       -0.8556758699        2.6530784292
 C         -1.9529899093       -2.0232050700        2.7055757392
 C         -1.9843971494       -2.9257567800        1.6536934292
 C         -2.7512309095       -2.6515639999        0.5328663292
 H         -2.7970679496       -3.3232406099       -0.3100723108
 H         -1.4011165195       -3.8315407900        1.6988491791
 H         -1.3343743492       -2.2269219800        3.5651602491
 H         -2.6684715791       -0.1544856299        3.4715339892
 H         -4.0602308993        0.3217292601        1.4564226994
 H         -2.4655612497       -0.8360158500       -2.2015929608
 H         -4.2636013995        2.1783749301       -1.5910311406
 H         -3.3460009493        4.0531433401       -0.2427279707
 H         -1.2394866092        3.7838017100        0.9763773691
 C          0.3370608307        1.4925558499        1.1247830089
 H          0.0771961008        0.7435291699        1.8934776390
 C          0.8645916709        2.7094876499        1.8722255889
 C          2.3347766109        2.9420993298        2.0485768987
 C          1.5339063309        3.8499382898        1.1667879988
 H          1.3364958610        4.8545829598        1.5114380888
 H          1.6568032008        3.7684498898        0.0984333088
 H          2.6843847810        3.3180610698        2.9985456587
 H          3.0142823208        2.2462607098        1.5776963087
 H          0.2413446010        2.9670916199        2.7227145789
 O          1.5811388607       -0.9170864402        1.8807965588
