  62
        -98.93699343
 C         -2.1631211905       -0.9772345123        0.1177017636
 C         -2.6741075829       -0.0788219142        1.0803980902
 C         -2.9964961043        1.2800161283        0.6119374806
 C         -2.7723906107        1.6039130757       -0.6756377102
 C         -2.9357198996        2.9159108597       -1.4145103882
 C         -3.7456970768        4.0599611493       -0.8097300559
 C         -5.2440353331        3.7863917465       -0.6842572991
 H         -5.6749713325        3.7490760526       -1.6877852335
 H         -5.7007210454        4.6264099136       -0.1565746190
 C         -5.6191518003        2.4887957878        0.0270645178
 H         -5.2541817290        1.6361980442       -0.5493007351
 H         -6.7101867285        2.4215167050        0.0458655353
 C         -5.1217883858        2.3647419157        1.4658198530
 H         -5.5939640447        1.4802534327        1.9014239324
 H         -5.4436608522        3.2339213820        2.0424005467
 C         -3.6002318165        2.2041652963        1.6304406321
 H         -3.4124062195        1.7473582043        2.6066466767
 H         -3.0959577298        3.1677444976        1.6196163184
 H         -3.6205629018        4.9152427097       -1.4793252049
 H         -3.3286993719        4.3495940271        0.1502778924
 H         -1.9163635473        3.2722086553       -1.6040366715
 H         -3.3560074437        2.6562898884       -2.3914079003
 O         -2.2623125715        0.7035936208       -1.5675191454
 C         -1.9393504283       -0.5923088122       -1.2031437967
 O         -1.4771927621       -1.2871068604       -2.1281161845
 H          0.1704539873       -0.6844720549        1.1909288978
 C          0.5742999682       -1.5561426164        0.6883370809
 C         -0.2896545361       -2.5681130718        0.2874589872
 C          0.2489056212       -3.6762106351       -0.3522714456
 C          1.6078444136       -3.7478910165       -0.6100517972
 C          2.4574617527       -2.7231628345       -0.2361663223
 C          1.9307477019       -1.6211611718        0.4220193604
 N          2.7929433018       -0.5543369593        0.7884613520
 S          3.1797406961        0.4823167574       -0.4947437068
 O          2.2224136143        1.5703917182       -0.5393352684
 O          3.3381603402       -0.2961377073       -1.6953381777
 C          4.7648127797        1.0985850169        0.0395862895
 C          5.8664740281        0.2789027908       -0.1110365883
 C          7.1001376265        0.7251462762        0.3342151860
 C          7.2104379275        1.9764984473        0.9224805665
 C          6.0956154092        2.7879000506        1.0667922442
 C          4.8583736114        2.3461743694        0.6239564927
 H          3.9662165270        2.9455528859        0.7092234414
 H          6.1839968400        3.7610877718        1.5223520978
 H          8.1715049199        2.3222740347        1.2689409673
 H          7.9694796534        0.0975068007        0.2221521957
 H          5.7333261722       -0.6812854308       -0.5810565435
 H          2.3728086334        0.0208380647        1.5082983041
 H          3.5107459902       -2.7548335639       -0.4600440138
 H          2.0073834927       -4.6108713520       -1.1206800347
 H         -0.3987514143       -4.4779373934       -0.6675088524
 C         -1.7645632214       -2.3784283103        0.5457854781
 H         -1.9357500021       -2.4148918208        1.6320834358
 C         -2.6391547381       -3.4168008937       -0.1230729709
 C         -2.8957827515       -4.7325724318        0.5473749098
 C         -3.9879559173       -3.7107209650        0.4597850392
 H         -4.8122479342       -3.8894547508       -0.2140909094
 H         -4.2658089166       -3.1776852353        1.3573464424
 H         -2.4360642052       -4.9007634521        1.5093705908
 H         -2.9733831464       -5.6170114318       -0.0665961730
 H         -2.5533430592       -3.3965651965       -1.2038619758
 O         -2.8358473880       -0.3909333655        2.2920776679
