  62
        -98.93562581
 C         -2.2528808063       -1.0975053301       -0.5336233121
 C         -3.5529400191       -1.0140514718        0.0207674983
 C         -4.3328320630        0.1962943971       -0.2887705695
 C         -3.7746295135        1.1655465347       -1.0378214421
 C         -4.3277614499        2.4836045007       -1.5385865933
 C         -5.6194733075        3.0581818755       -0.9632703649
 C         -5.5242734063        3.5101762867        0.4936777100
 H         -4.8857135761        4.3959620708        0.5413937420
 H         -6.5225183513        3.8015586857        0.8273988231
 C         -4.9553657115        2.4819178076        1.4683513007
 H         -4.9342992882        2.9387883287        2.4616459039
 H         -3.9212041240        2.2537737669        1.2005744604
 C         -5.7412488486        1.1765633631        1.5745685038
 H         -5.3198750887        0.6066802231        2.4071305913
 H         -6.7843445227        1.3939523242        1.8122196180
 C         -5.6993831152        0.2749612360        0.3289172911
 H         -5.9531785205       -0.7421867439        0.6411652488
 H         -6.4366425080        0.5840451128       -0.4079594132
 H         -5.8635777760        3.9376827977       -1.5652647903
 H         -6.4351790198        2.3529606535       -1.0917363205
 H         -4.4557203410        2.3588362804       -2.6195539580
 H         -3.5216042187        3.2125578723       -1.4069607998
 O         -2.5093515025        1.0478830441       -1.5364686799
 C         -1.7178778653       -0.0643133563       -1.3004601488
 O         -0.5917348483       -0.0027342416       -1.8307095007
 O         -4.0506562330       -1.9219066734        0.7387998199
 C         -1.4163656508       -2.3276204512       -0.2208308902
 C         -0.2969068715       -1.9010436960        0.6958767489
 C         -0.5529960769       -1.7506883236        2.0561125354
 C          0.4260000873       -1.2797773798        2.9105917167
 C          1.6783670191       -0.9415415817        2.4272602482
 C          1.9394547405       -1.0792289697        1.0711343134
 C          0.9602971492       -1.5695264648        0.2165785364
 H          1.1707303330       -1.6546775266       -0.8376981032
 N          3.2086078847       -0.7337447399        0.5620751640
 S          3.8306324943        0.7596634726        1.0528019858
 O          4.4053826531        0.6009544363        2.3661358429
 O          2.8259688105        1.7929016691        0.9280936009
 C          5.1263348766        0.9946233431       -0.1471165837
 C          4.8285641380        1.6361921787       -1.3344999593
 C          5.8292100003        1.7916492229       -2.2808508754
 C          7.1017317077        1.3020080048       -2.0264208034
 C          7.3843705479        0.6591320275       -0.8304869885
 C          6.3888882184        0.5012680175        0.1206868666
 H          6.5617423227        0.0157209069        1.0667891129
 H          8.3752286878        0.2813971286       -0.6366633541
 H          7.8777415478        1.4248204849       -2.7653341019
 H          5.6116657760        2.2923574888       -3.2106729350
 H          3.8268942391        2.0069014481       -1.4876428367
 H          3.2187172823       -0.7895134004       -0.4483739660
 H          2.4453982053       -0.5532091042        3.0776894748
 H          0.2130779447       -1.1675352329        3.9633156105
 H         -1.5381609143       -1.9911665273        2.4313856651
 H         -2.0819686501       -2.9967148173        0.3405891523
 C         -0.9514631484       -3.0387531350       -1.4738114817
 C         -0.4009231517       -4.4284860296       -1.3652057430
 C         -1.7423526795       -4.2005906776       -1.9925632328
 H         -1.8399597340       -4.3195375121       -3.0612417275
 H         -2.6227862516       -4.4924202541       -1.4392201593
 H          0.4240480015       -4.7083585985       -2.0021303881
 H         -0.3692577197       -4.8738063737       -0.3824066751
 H         -0.5136427901       -2.3740704286       -2.2083895580
