  62
        -98.94796733
 C         -1.2767409107       -1.0255384902       -0.0215729092
 C         -1.6354850104        0.0647244604        0.8060308100
 C         -2.7016250000        0.9363682705        0.2978007593
 C         -3.2177113699        0.6986566799       -0.9218970806
 C         -4.3365613695        1.4803039799       -1.5461183413
 C         -5.7018500598        0.8633602507       -1.2108595611
 C         -5.8976922401        0.5670273817        0.2759355591
 H         -6.9051491903        0.1633423822        0.3968095792
 H         -5.1983287305       -0.2159017584        0.5776097997
 C         -5.7211373798        1.7845875122        1.1939242683
 H         -5.7979385194        2.7028102319        0.6105094877
 H         -6.5338468899        1.7945810430        1.9232302782
 C         -4.4123371599        1.7969134323        1.9857631085
 H         -4.4852755597        2.5737370228        2.7515269180
 H         -4.2867671403        0.8405723825        2.4995451491
 C         -3.1426509597        2.0767282912        1.1714419085
 H         -2.3235358097        2.2481241514        1.8764459385
 H         -3.2744460293        2.9853618909        0.5796796179
 H         -6.4816606295        1.5455834307       -1.5541918816
 H         -5.8020574201       -0.0736899497       -1.7633753005
 H         -4.2929694192        2.5096140001       -1.1947228220
 H         -4.1982012794        1.4715925692       -2.6287520913
 O         -2.8036131102       -0.3208087308       -1.7167236099
 C         -1.8246473806       -1.2076304608       -1.2908504892
 O         -1.5382023608       -2.0923358615       -2.1196763086
 O         -1.0862499705        0.2972747010        1.9175506499
 C         -0.1910768411       -1.9757298203        0.4464009315
 C          1.0240594791       -1.8712171614       -0.4428472584
 C          1.7957857487       -2.9627861019       -0.8210796476
 C          2.9182883689       -2.7843355728       -1.6114633475
 C          3.3144935194       -1.5213815232       -2.0131227983
 C          2.5531643498       -0.4223860527       -1.6327648591
 C          1.4151204696       -0.6085233518       -0.8657577591
 H          0.8159152099        0.2506872386       -0.6067611798
 N          2.9176710403        0.8842009469       -1.9940229299
 S          2.6985284806        2.1109641277       -0.8750733307
 O          1.3127252207        2.5048133783       -0.8234490912
 O          3.6279491211        3.1407636371       -1.2906607213
 C          3.2339340001        1.4051778785        0.6741214398
 C          4.5865752000        1.1566484281        0.8133584502
 C          5.0456459096        0.5547524487        1.9725856106
 C          4.1466165394        0.2060261497        2.9694753307
 C          2.7945773395        0.4679295501        2.8177273404
 C          2.3284561899        1.0738910195        1.6607555199
 H          1.2777491600        1.2783369898        1.5245067896
 H          2.0875847393        0.2007511708        3.5871449004
 H          4.5005668691       -0.2701174699        3.8702235211
 H          6.0981231995        0.3559522484        2.0942810509
 H          5.2540607702        1.4518896373        0.0200745601
 H          3.8049378904        0.9629937763       -2.4688905498
 H          4.1958823195       -1.3847294040       -2.6204699183
 H          3.5015511686       -3.6420981232       -1.9096614669
 H          1.5141464783       -3.9535188716       -0.5044247270
 H          0.1003817789       -1.6129742298        1.4445268013
 C         -0.7263095017       -3.3859798200        0.5796057224
 C         -0.1741118922       -4.3082769996        1.6241055630
 C         -1.5487393620       -3.7341620790        1.7831856325
 H         -2.4012396422       -4.3841598687        1.6550451728
 H         -1.6990347518       -2.9594515584        2.5211320819
 H         -0.0842375725       -5.3581138698        1.3892193837
 H          0.6086043179       -3.9285770395        2.2631183529
 H         -1.0290622217       -3.8071865005       -0.3722544174
