  62
        -98.93166801
 C         -1.9235988404       -1.2200639581        0.7409096371
 C         -1.9466161943        0.1786792024        0.9625424470
 C         -3.1640254466        0.9146875590        0.5715047974
 C         -4.1878139474        0.2239403672        0.0373293984
 C         -5.5146267120        0.7405879155       -0.4537300248
 C         -5.4120636040        1.4470038659       -1.8139487011
 C         -4.2470053958        2.4245933766       -1.9403499142
 H         -3.3106201086        1.8889692742       -1.7734040483
 H         -4.2307271998        2.7897831916       -2.9707481869
 C         -4.3131202656        3.6378312645       -1.0152867844
 H         -5.2470634006        4.1747410318       -1.1953237424
 H         -3.4906713718        4.3014542204       -1.2946482079
 C         -4.1971263991        3.3462646375        0.4832067657
 H         -5.1381512230        2.9860049980        0.8902680804
 H         -3.9871496085        4.2963155105        0.9830459959
 C         -3.0657070934        2.3941633995        0.8565474619
 H         -2.1400620583        2.7361021752        0.3790805521
 H         -2.8820348010        2.4731432412        1.9345881584
 H         -6.3515856722        1.9695416147       -2.0024553565
 H         -5.2913546990        0.6820021346       -2.5850836826
 H         -5.9593528857        1.3966997490        0.2886546504
 H         -6.1669469539       -0.1288983918       -0.5623756997
 O         -4.1213117338       -1.1214877634       -0.1653413525
 C         -3.0016839032       -1.8784139397        0.1491753971
 O         -3.1161555688       -3.0819816773       -0.1435843020
 O         -0.9784028912        0.8003962060        1.4757329129
 C         -0.6503248197       -1.9425578048        1.1434374396
 C          0.3736485652       -1.8574330478        0.0392719316
 C          0.0203973850       -2.0980951980       -1.2845379120
 C          0.9589025375       -1.9898978945       -2.2949877185
 C          2.2678253382       -1.6446410857       -2.0065218638
 C          2.6318139720       -1.4032308610       -0.6889057769
 C          1.6868564969       -1.5119118432        0.3250728870
 H          1.9725925304       -1.3038834436        1.3474495354
 N          3.9687267211       -1.0503813717       -0.4061705559
 S          4.4984031590        0.4590547711       -0.9104256723
 O          4.0510359381        0.6787137238       -2.2610292727
 O          5.9259388306        0.4732987414       -0.6907391232
 C          3.7143720748        1.6042594921        0.2104833382
 C          4.4744604450        2.2252826855        1.1821877751
 C          3.8443714717        3.0534854668        2.0969295644
 C          2.4693400682        3.2248793027        2.0395739925
 C          1.7185727541        2.5891483104        1.0622993315
 C          2.3462497954        1.7762403187        0.1319156339
 H          1.7867544645        1.2717784003       -0.6400408097
 H          0.6450477279        2.6856357199        1.0394530080
 H          1.9747834230        3.8540991504        2.7627784807
 H          4.4236000748        3.5523610015        2.8573621447
 H          5.5378944547        2.0488176744        1.1979055561
 H          4.2230293457       -1.1786457127        0.5637559897
 H          3.0058703399       -1.5394377715       -2.7843950706
 H          0.6690714478       -2.1785925674       -3.3178104056
 H         -0.9996848829       -2.3716967702       -1.5123562439
 H         -0.2553040811       -1.3681443150        1.9969419637
 C         -0.8787932941       -3.3677833816        1.6233823598
 C         -0.5199933517       -4.5754718143        0.8166816565
 C          0.2852393414       -4.2229324687        2.0290460323
 H          0.1917418215       -4.8380054497        2.9110908678
 H          1.2767702338       -3.8273180731        1.8680103122
 H         -1.1892767990       -5.4208429039        0.8581683489
 H         -0.0735160416       -4.4260699974       -0.1539139413
 H         -1.7749450571       -3.4488412446        2.2296859075
