  62
        -98.93434596
 C          2.1679870494        0.8746558272        0.1820331829
 C          3.0311296776        0.1978229123        1.0763263114
 C          3.8724017088       -0.8802955509        0.5209459422
 C          3.7328304106       -1.2012740503       -0.7786355686
 C          4.4948997152       -2.2267804972       -1.5752605070
 C          5.9148663310       -1.7615919464       -1.9352179277
 C          6.6836903492       -1.1020461089       -0.7934308811
 H          7.6267062256       -0.7280836733       -1.2007105819
 H          6.1216340527       -0.2378479729       -0.4346140993
 C          7.0136367448       -2.0169830142        0.3836006261
 H          7.6420751244       -1.4457121615        1.0716941995
 H          7.6010829537       -2.8649639608        0.0246773512
 C          5.8162688261       -2.5535847446        1.1713516445
 H          6.2017518074       -2.9671187335        2.1079482481
 H          5.3361423080       -3.3754357341        0.6468380813
 C          4.7823167136       -1.4994973600        1.5546070144
 H          4.1158490442       -1.9247044530        2.3152024213
 H          5.2882841418       -0.6647391003        2.0534305180
 H          6.4753710173       -2.6214799793       -2.3057560364
 H          5.8363664512       -1.0343610488       -2.7470094120
 H          4.5210574109       -3.1718873435       -1.0409323998
 H          3.9350453025       -2.3827846223       -2.5000685885
 O          2.8419257054       -0.5641501849       -1.5895796298
 C          2.0398720616        0.4755998855       -1.1489427448
 O          1.2779895710        0.9307582099       -2.0207327529
 O          3.1024725677        0.4794813317        2.3041209382
 C          1.3076222643        1.9938765121        0.7391694647
 C         -0.1296002749        1.8041988377        0.3213034553
 C         -0.8712282000        2.7616728061       -0.3565272674
 C         -2.1885883605        2.5118655990       -0.7007272341
 C         -2.7925955182        1.3103237452       -0.3820326837
 C         -2.0620193813        0.3462272431        0.3009094364
 C         -0.7470392420        0.6039898540        0.6543504999
 H         -0.1773560992       -0.1487726241        1.1872445748
 N         -2.6588241759       -0.8877630761        0.6120553773
 S         -4.1690539583       -0.8901847850        1.3430223124
 O         -4.3703126035        0.2933498377        2.1467246033
 O         -4.2491094173       -2.1576426227        2.0364031992
 C         -5.3109127525       -0.9047322295       -0.0225867327
 C         -6.3026435967        0.0531856453       -0.1019297174
 C         -7.1879071687        0.0140920248       -1.1680155806
 C         -7.0669807599       -0.9773926373       -2.1295215336
 C         -6.0670200226       -1.9338366903       -2.0335503677
 C         -5.1796980612       -1.9011712392       -0.9697874316
 H         -4.3908347248       -2.6263286627       -0.8577968479
 H         -5.9755074119       -2.7031267085       -2.7833925077
 H         -7.7561128107       -1.0056030722       -2.9587147178
 H         -7.9664434448        0.7560198092       -1.2442448594
 H         -6.3543699945        0.8083795528        0.6660976699
 H         -2.0373511110       -1.5377000802        1.0707167721
 H         -3.8152467542        1.1105311720       -0.6571424552
 H         -2.7511466907        3.2630073850       -1.2338666641
 H         -0.4135463595        3.6964233214       -0.6347937096
 H          1.3574676438        1.8541630611        1.8328923895
 C          1.8410522148        3.3913071664        0.4614004076
 C          3.3011147832        3.6274168397        0.2185324081
 C          2.3169970626        3.8143847695       -0.8949233455
 H          2.1014792474        4.8212522431       -1.2216332628
 H          2.2849078774        3.0816711429       -1.6855287452
 H          3.7591966596        4.5014315610        0.6567647594
 H          3.9496905119        2.7637861508        0.1880992106
 H          1.3284204040        4.1434053636        1.0535388238
