  62
        -98.94293308
 C          1.5801787641        0.8632045433        0.8467753214
 C          2.3775124544        0.2025819311       -0.1146404412
 C          2.5761521397       -1.2470626860        0.0776901330
 C          1.9352931862       -1.8650274911        1.0840816203
 C          1.9156802253       -3.3341998593        1.4092748750
 C          0.7553313719       -4.0394982694        0.6843990089
 C          1.1051387513       -4.5982140874       -0.6922921129
 H          1.8122057585       -5.4238603793       -0.5822868339
 H          0.1850641993       -5.0022423932       -1.1213851185
 C          1.6835998256       -3.5676131264       -1.6641283275
 H          1.5410583418       -3.9450017813       -2.6791151183
 H          1.1114077645       -2.6402680018       -1.5845872183
 C          3.1778365389       -3.2959249255       -1.4372866319
 H          3.5829843767       -4.0535781386       -0.7665249034
 H          3.7123306239       -3.4033347618       -2.3839815799
 C          3.5119726579       -1.8983025388       -0.9044249082
 H          4.5136563355       -1.9192854019       -0.4595568122
 H          3.5594606350       -1.1962733453       -1.7433989368
 H         -0.0645097939       -3.3247955740        0.5710382891
 H          0.3961255709       -4.8616366803        1.3073565327
 H          2.8676362682       -3.7975929045        1.1674373195
 H          1.7538322113       -3.4096564989        2.4868153248
 O          1.1308966840       -1.1974922707        1.9583720667
 C          0.9324329243        0.1671591491        1.8654504646
 O          0.1695272672        0.6385448690        2.7337150608
 H         -0.9060545858        1.0046866484        0.0773909365
 C         -0.6386248751        1.6761460121       -0.7253874005
 C          0.4638923231        2.5076862605       -0.5703583255
 C          0.7816443254        3.3875025245       -1.5950557124
 C          0.0336056071        3.3947327759       -2.7610262489
 C         -1.0192336453        2.5160303090       -2.9381105119
 C         -1.3548692737        1.6430094438       -1.9082790966
 N         -2.4116952883        0.7304011093       -2.0346299390
 S         -2.3357908517       -0.7430441153       -1.2416021159
 O         -0.9860168094       -1.2444451701       -1.1392343267
 O         -3.2658840652       -1.5835853463       -1.9691253260
 C         -3.0202640285       -0.4058201928        0.3657246498
 C         -4.1440295713        0.3934128877        0.4451729887
 C         -4.7041194852        0.6381162541        1.6880010739
 C         -4.1375001724        0.0796962729        2.8241950033
 C         -3.0143468213       -0.7259465377        2.7273374244
 C         -2.4502836225       -0.9738915258        1.4862701638
 H         -1.5641846400       -1.5799850259        1.3777586044
 H         -2.5623935779       -1.1522585783        3.6082904411
 H         -4.5708430980        0.2744417016        3.7925388167
 H         -5.5774171920        1.2652509932        1.7685629149
 H         -4.5534518145        0.8112592698       -0.4593167539
 H         -2.8093616130        0.6516290169       -2.9589076326
 H         -1.5736003867        2.4974349138       -3.8639929133
 H          0.2920041465        4.0786361633       -3.5553356982
 H          1.6233907914        4.0521864930       -1.4913264268
 C          1.2653326899        2.3437990660        0.6991399149
 H          0.6192266102        2.6026197244        1.5505669033
 C          2.5168803720        3.1907145724        0.7539340451
 C          2.4307812582        4.6240364064        1.1827440324
 C          3.0537925904        3.6066636278        2.0893135930
 H          4.1239144869        3.6255522555        2.2307031086
 H          2.5034900626        3.2942067656        2.9649675803
 H          3.0757824389        5.3452721738        0.7041692373
 H          1.4573631183        5.0084856097        1.4471094134
 H          3.2346779193        2.9257550971       -0.0131216922
 O          2.9072171628        0.7915797715       -1.0946420928
