  62
        -98.93821467
 C         -1.9183078715       -1.1522218591       -0.1606868195
 C         -2.3812185891        0.0763206330       -0.6827921139
 C         -3.8380888419        0.3184693999       -0.6191443578
 C         -4.6312063514       -0.6270861581       -0.0820899678
 C         -6.1225185474       -0.5878519353        0.1214880589
 C         -6.5357553554        0.2987069945        1.3075540888
 C         -5.8089252490        1.6382862454        1.3930831962
 H         -6.1057458103        2.1179624792        2.3295237053
 H         -4.7331965337        1.4606821052        1.4473062135
 C         -6.1051266719        2.6128612656        0.2557452237
 H         -7.1776209000        2.8184693073        0.2298047242
 H         -5.5930099511        3.5497595132        0.4897133644
 C         -5.6622958829        2.1668098717       -1.1392530238
 H         -6.3499814056        1.4348644287       -1.5542836817
 H         -5.7117164186        3.0432904802       -1.7921347854
 C         -4.2297592871        1.6480151705       -1.2176205409
 H         -3.9367868767        1.5924724450       -2.2733152793
 H         -3.5543828362        2.3881726203       -0.7729213886
 H         -6.3276292619       -0.2514410326        2.2284084206
 H         -7.6122655237        0.4687943218        1.2523309527
 H         -6.6151792923       -0.2682499904       -0.7919245820
 H         -6.4374626193       -1.6131050557        0.3279461081
 O         -4.1359259693       -1.7976992234        0.4132907448
 C         -2.7878233869       -2.0914440916        0.3923517014
 O         -2.4893484947       -3.1972239793        0.8877870747
 H          1.5491858098        0.2727417830       -1.0170973010
 C          1.3003918468        0.3576763969        0.0265758777
 C          0.3269483188       -0.4489311280        0.5923683354
 C          0.0192069231       -0.2804791878        1.9410603699
 C          0.6599116627        0.6804196460        2.6974120715
 C          1.6285212797        1.4886707115        2.1271851864
 C          1.9448333387        1.3286954054        0.7838292960
 N          2.9027242569        2.1578198046        0.1811016225
 S          4.0402038887        1.5625907477       -0.8856367401
 O          5.0013033676        2.6351235728       -1.0176190332
 O          3.4124294214        1.1137745466       -2.1012604821
 C          4.7861940243        0.1897930705       -0.0258068290
 C          4.3064612425       -1.0878771641       -0.2301621038
 C          4.8607785998       -2.1332844914        0.4918655574
 C          5.8778056891       -1.8849006072        1.4003933016
 C          6.3508924778       -0.5953905350        1.5919659894
 C          5.7985864510        0.4541666510        0.8764289545
 H          6.1448211458        1.4691182275        0.9858853548
 H          7.1453652627       -0.4061666623        2.2957271990
 H          6.3057984131       -2.7020049957        1.9594308391
 H          4.4953515650       -3.1366681769        0.3414891709
 H          3.5187157649       -1.2448978870       -0.9479281086
 H          3.3149226528        2.8396271876        0.8006726535
 H          2.1242407631        2.2473855968        2.7135148118
 H          0.4060941694        0.8027179886        3.7396116000
 H         -0.7419078376       -0.9102726682        2.3820758762
 C         -0.4371429954       -1.4903305837       -0.1876389345
 H         -0.3407199654       -2.4510214763        0.3384833184
 C          0.0362193910       -1.6694031896       -1.6140141426
 C          1.2002710207       -2.5647142086       -1.9101244621
 C         -0.1866968264       -2.9879519092       -2.2892223262
 H         -0.4598758591       -2.9925413751       -3.3337867690
 H         -0.6608110111       -3.7674024036       -1.7102971770
 H          1.8826247867       -2.2788740822       -2.6972824905
 H          1.6657033787       -3.0680536562       -1.0758945948
 H         -0.0886087182       -0.7773287447       -2.2171743789
 O         -1.6211729796        0.9473773235       -1.1825188523
