  62
        -98.93357834
 C         -2.6022776373       -1.1874360882        0.2933134490
 C         -2.5835943694       -0.2870687664       -0.7994916883
 C         -3.4793114902        0.8806732572       -0.6962158443
 C         -4.2383001802        1.0434264498        0.3999115165
 C         -5.2452178943        2.1275140645        0.6922701271
 C         -4.8485935529        3.5707487622        0.3499213198
 C         -3.3517584827        3.8847158939        0.4895932136
 H         -3.2340392902        4.7871634860        1.0925727452
 H         -2.8459889959        3.0738961537        1.0173097730
 C         -2.6635162141        4.1267645525       -0.8562286471
 H         -3.3143050695        4.7501973080       -1.4732007191
 H         -1.7421387035        4.6879153018       -0.6827194201
 C         -2.2866896785        2.8695411495       -1.6395043251
 H         -1.4620045248        2.3526550830       -1.1405239025
 H         -1.9194146221        3.1820828919       -2.6197677085
 C         -3.4201441437        1.8504869784       -1.8410627735
 H         -4.3744984073        2.3471193284       -1.9980000904
 H         -3.1833845485        1.2578668611       -2.7287190043
 H         -5.1656174393        3.8046623052       -0.6654072041
 H         -5.4200790129        4.2206157854        1.0147575138
 H         -6.1743417356        1.8787148570        0.1713886232
 H         -5.4454851181        2.0469674032        1.7634662890
 O         -4.2020934631        0.1658625174        1.4437454921
 C         -3.3782504645       -0.9464163392        1.4278373303
 O         -3.4190019026       -1.6278252821        2.4728199257
 H         -0.1873521767       -0.5131414700        1.3588648981
 C          0.3329629211       -1.0213433280        0.5542286203
 C         -0.3140594663       -2.0501206073       -0.1210451796
 C          0.3650165779       -2.6965763221       -1.1444186756
 C          1.6493573361       -2.3093339930       -1.4862128072
 C          2.2816813550       -1.2749645495       -0.8225292200
 C          1.6136405306       -0.6232035086        0.2061664181
 N          2.2427642203        0.4428840275        0.8757609878
 S          3.7710737789        0.1717062584        1.5181466413
 O          3.9526595317       -1.2152527086        1.8803776663
 O          3.9080183136        1.1373002267        2.5871517109
 C          4.8804429165        0.6081110606        0.1961031932
 C          5.8213532620       -0.3036051787       -0.2408403245
 C          6.6822519040        0.0608910287       -1.2644730806
 C          6.5880051982        1.3238420488       -1.8286730693
 C          5.6390590045        2.2287369767       -1.3763153849
 C          4.7762222465        1.8712419137       -0.3526656814
 H          4.0274128385        2.5450970604        0.0291648698
 H          5.5683918232        3.2098358211       -1.8177011361
 H          7.2579352824        1.6050582504       -2.6258013396
 H          7.4207416251       -0.6408993684       -1.6172784996
 H          5.8531059996       -1.2759694814        0.2242099269
 H          1.6523355185        0.8964936268        1.5578229412
 H          3.2778207134       -0.9651838894       -1.0932421655
 H          2.1625142131       -2.8165719713       -2.2889076856
 H         -0.1176470666       -3.4900148750       -1.6904410047
 C         -1.7090208974       -2.4152872449        0.3274971430
 H         -1.6502756365       -2.6924425850        1.3940637000
 C         -2.2814673436       -3.6236477737       -0.3988230911
 C         -3.7605029614       -3.7884717501       -0.5787074514
 C         -2.8864355831       -3.5232893440       -1.7656082038
 H         -2.7135635920       -4.3304258515       -2.4624190878
 H         -2.9195999073       -2.5481840797       -2.2242888691
 H         -4.1833255025       -4.7745541610       -0.4572436085
 H         -4.4006050670       -2.9936989552       -0.2233560527
 H         -1.7249729592       -4.5289123778       -0.1757408996
 O         -1.8669199096       -0.4388589108       -1.8204361292
