  62
        -98.93788171
 C          2.6108987050       -0.0082817098        0.4433327957
 C          2.1877564003       -0.5818514547       -0.7779937691
 C          1.7418932715       -1.9872954283       -0.7305572249
 C          1.7314870687       -2.6360580161        0.4486351371
 C          1.3604401614       -4.0592393800        0.8126942370
 C          0.7680952501       -4.9972698862       -0.2338308441
 C         -0.6768428679       -4.6778105495       -0.6234381161
 H         -0.9410440319       -5.2760034110       -1.4979477517
 H         -1.3280987390       -4.9834662845        0.1992203861
 C         -0.9794137225       -3.2098772868       -0.9165667488
 H         -0.7538422364       -2.5938121014       -0.0432307574
 H         -2.0553565911       -3.1135193149       -1.0915800872
 C         -0.2691996469       -2.6170759120       -2.1307425336
 H         -0.6364022872       -1.5930515607       -2.2493432350
 H         -0.5373140522       -3.1805321780       -3.0277818468
 C          1.2618991134       -2.5574014985       -2.0345881582
 H          1.7048514479       -3.5324518501       -2.2236424441
 H          1.6185204794       -1.8752625629       -2.8125251840
 H          1.4106270030       -5.0293016313       -1.1088948752
 H          0.7768231605       -5.9999951162        0.2018103900
 H          2.2803411605       -4.5076674390        1.2039314185
 H          0.6710601954       -3.9832319627        1.6600607666
 O          2.1421861010       -2.0336667969        1.6054658071
 C          2.5529933585       -0.7152707501        1.6406830565
 O          2.8420379028       -0.2940318228        2.7813494649
 O          2.1939723094        0.0464631081       -1.8689121270
 C          3.0069793922        1.4579078039        0.4971810367
 C          1.8180421408        2.2789609424        0.0583996681
 C          1.8727067220        3.3010814541       -0.8796479373
 C          0.7159217355        3.9453883998       -1.2865562271
 C         -0.5182291173        3.5812493435       -0.7770786168
 C         -0.5756979660        2.5847769449        0.1844748618
 C          0.5822474926        1.9575204019        0.6058901551
 H          0.5158131144        1.1639305071        1.3413785701
 N         -1.8474805843        2.1435004835        0.6761126312
 S         -2.1514376264        0.5579392760        0.1609174007
 O         -1.5881046736       -0.3964222334        1.0957757931
 O         -1.7452246467        0.4528675461       -1.2163355839
 C         -3.9316261813        0.5150465839        0.2600026675
 C         -4.5605056356       -0.2366813133        1.2322411387
 C         -5.9453696433       -0.2204845866        1.3010954453
 C         -6.6720743943        0.5468145085        0.4040444698
 C         -6.0256289213        1.2974386957       -0.5672309543
 C         -4.6424970639        1.2834557635       -0.6418353453
 H         -4.0945397558        1.8431452734       -1.3815687039
 H         -6.5941234281        1.8921072270       -1.2639476860
 H         -7.7490374135        0.5591414342        0.4614258609
 H         -6.4497934969       -0.8045497568        2.0540283981
 H         -3.9540964479       -0.8201232607        1.9065786892
 H         -1.8725977211        2.1385234650        1.6881906704
 H         -1.4282194809        4.0493478009       -1.1145876302
 H          0.7761475994        4.7271449442       -2.0283503125
 H          2.8211785681        3.5782316323       -1.3106464289
 H          3.2099887140        1.6795588568        1.5555933510
 C          4.2601927407        1.7171986919       -0.3100769546
 C          5.1682033336        2.8522365790        0.0545617115
 C          5.5933500461        1.4391542449        0.3143508821
 H          6.3701787137        1.0103742221       -0.3003912773
 H          5.5973287791        1.0825008829        1.3343190974
 H          5.6589173718        3.3948960769       -0.7390754782
 H          4.8920674518        3.4608366339        0.9023017635
 H          4.1362357073        1.4716637540       -1.3582086838
