  62
        -98.93309720
 C         -1.8163817662       -0.7215062982        0.3960726566
 C         -2.2040132187        0.5568078047       -0.0776284969
 C         -3.6031510084        0.7227317439       -0.5063811425
 C         -4.4397722552       -0.3289217938       -0.4350563074
 C         -5.8921718867       -0.4793570240       -0.8374307177
 C         -6.7498643161        0.7473857959       -1.1359419831
 C         -7.0457165875        1.6299055297        0.0762869886
 H         -7.5722054953        2.5218314340       -0.2703548045
 H         -7.7175857657        1.0863487656        0.7454384930
 C         -5.8289152147        2.0568152092        0.8934275905
 H         -5.3483612183        1.1755821032        1.3234700606
 H         -6.1845552076        2.6681224180        1.7273811219
 C         -4.7834782066        2.8709086352        0.1336561331
 H         -5.2588438000        3.7369284977       -0.3309966245
 H         -4.0588071057        3.2390519063        0.8647866305
 C         -4.0009411353        2.1025963689       -0.9454052380
 H         -4.5526034838        2.0638506391       -1.8816911999
 H         -3.0689129598        2.6425392002       -1.1356059133
 H         -7.7060044756        0.3742783878       -1.5131115589
 H         -6.3039104613        1.3328483591       -1.9345180691
 H         -5.8881203573       -1.1231596183       -1.7240324019
 H         -6.3638661464       -1.0606804581       -0.0387063507
 O         -4.0208231904       -1.5452375465        0.0177407865
 C         -2.7199308107       -1.7824275651        0.4448527558
 O         -2.5303243599       -2.9508010485        0.8265962460
 H          2.0502868075        0.0619801051        0.1810726017
 C          1.7628364442       -0.7724354251       -0.4391800022
 C          0.5217949272       -1.3644815511       -0.2568535004
 C          0.1544121641       -2.4178575442       -1.0872610264
 C          1.0183934808       -2.8659878032       -2.0701900642
 C          2.2689607608       -2.2942582563       -2.2262300307
 C          2.6465575977       -1.2422149242       -1.4004434146
 N          3.9041741662       -0.6376794230       -1.5255492673
 S          4.7298955780       -0.1573415155       -0.1482470564
 O          6.1190730226       -0.1266410621       -0.5514442277
 O          4.4101850702       -1.0006320474        0.9789764803
 C          4.1745792516        1.5083993132        0.1400882323
 C          3.6567559202        1.8574432772        1.3714234280
 C          3.2410002129        3.1633512849        1.5777912998
 C          3.3521936845        4.0923670753        0.5550196337
 C          3.8786062662        3.7266927512       -0.6747624636
 C          4.2955089858        2.4228374650       -0.8873967217
 H          4.7120978803        2.1013663568       -1.8273365280
 H          3.9622521064        4.4529732389       -1.4671629595
 H          3.0250026530        5.1070739317        0.7182358343
 H          2.8294423262        3.4485838735        2.5327661550
 H          3.5820302877        1.1028285038        2.1392019058
 H          4.5170621996       -1.0632173378       -2.2055491966
 H          2.9476121182       -2.6588164821       -2.9823618465
 H          0.7208365884       -3.6820484698       -2.7116064676
 H         -0.8070592465       -2.8886350937       -0.9478671530
 C         -0.3756093000       -0.8674202262        0.8471941609
 H         -0.0538759894        0.1592506872        1.0859158186
 C         -0.2212350715       -1.6901734956        2.1192900735
 C          0.3070612831       -3.0893396840        2.1419882711
 C          1.1387578032       -1.9701343828        2.6890837966
 H          1.2702416447       -1.9022563327        3.7588423425
 H          2.0066753013       -1.6667095884        2.1206946394
 H         -0.1510139375       -3.7873390203        2.8259845136
 H          0.6050389733       -3.5357397314        1.2064189387
 H         -1.0069502892       -1.4676602797        2.8351511466
 O         -1.4055999972        1.5304521923       -0.1390034834
