  62
        -98.94118818
 C          1.8911260601        1.5595826332        0.1932892451
 C          2.5407914108        0.6804418522        1.0999461266
 C          3.4729784436       -0.2898801399        0.5162600420
 C          3.6869353751       -0.2900988007       -0.8116298712
 C          4.6514301135       -1.1739910703       -1.5555981929
 C          4.0998964273       -2.5641983805       -1.8999095323
 C          3.9573370572       -3.5181656713       -0.7134529115
 H          3.7710185199       -4.5131267977       -1.1225975920
 H          4.9009085304       -3.5619597226       -0.1688065248
 C          2.8179217313       -3.1580299233        0.2501788839
 H          2.1385768789       -2.4584021911       -0.2430732487
 H          2.2453153794       -4.0589358162        0.4833024219
 C          3.2759247744       -2.5517228943        1.5770788318
 H          2.3907990537       -2.2960867868        2.1652557657
 H          3.8513562810       -3.2914794091        2.1377068139
 C          4.1253830915       -1.2825222222        1.4304855461
 H          5.1216331764       -1.5355912966        1.0680315446
 H          4.2178803885       -0.8158979612        2.4141087126
 H          3.1313864049       -2.4453117958       -2.3916380881
 H          4.7841100451       -3.0154227498       -2.6222484545
 H          4.8885920302       -0.6575535684       -2.4884236274
 H          5.5687934158       -1.2800831235       -0.9754457036
 O          3.0455334296        0.5644185551       -1.6499828831
 C          2.1173350352        1.4902573766       -1.1819646184
 O          1.5906810239        2.1604745616       -2.0902026074
 O          2.3591874443        0.7186151809        2.3452774550
 C          0.9507504351        2.5849172357        0.8033850237
 C         -0.4766975685        2.1008365574        0.8150272204
 C         -1.2460715802        2.1688957100        1.9706393596
 C         -2.5587824735        1.7290089878        1.9712608645
 C         -3.1270739227        1.2048446689        0.8243979891
 C         -2.3603091472        1.1171938305       -0.3310502193
 C         -1.0470254726        1.5652034377       -0.3314531141
 H         -0.4609232212        1.5075580014       -1.2371215330
 N         -2.9179550771        0.5605677390       -1.4941140027
 S         -3.8015310642       -0.8505495843       -1.3288393331
 O         -3.6295820085       -1.5601340930       -2.5769515876
 O         -5.1613346937       -0.5258030221       -0.9755914237
 C         -3.0375205058       -1.7458941882        0.0138751196
 C         -3.8000018378       -2.1306952951        1.0979308504
 C         -3.1904604658       -2.8100909859        2.1405261664
 C         -1.8336612587       -3.0867907678        2.0834396397
 C         -1.0813272529       -2.6963276748        0.9861765844
 C         -1.6864124934       -2.0212191350       -0.0610338068
 H         -1.1240083651       -1.7073595875       -0.9268369792
 H         -0.0247279955       -2.9076036537        0.9456781840
 H         -1.3552379022       -3.6086176376        2.8970457922
 H         -3.7729074566       -3.1161895340        2.9943973940
 H         -4.8500905379       -1.8875477881        1.1038180042
 H         -2.2735038087        0.5076968407       -2.2693076171
 H         -4.1500881421        0.8655623159        0.8029421726
 H         -3.1461455827        1.7932046093        2.8740664853
 H         -0.8051612890        2.5606923269        2.8752323911
 H          1.2763463175        2.6654477286        1.8525970140
 C          1.0954205097        3.9673015702        0.1803640464
 C          0.0635601391        4.5934969105       -0.7040062294
 C          0.2676601583        5.1116383927        0.6861446051
 H          0.7396395242        6.0733217842        0.8182068110
 H         -0.4956430318        4.8880413364        1.4160643236
 H          0.4124261576        5.1817942317       -1.5390654009
 H         -0.8366627239        4.0381276540       -0.9153661136
 H          2.1295844327        4.1885245218       -0.0654008852
