  62
        -98.94291107
 C         -1.9562469641       -0.6272836924        0.8236687735
 C         -2.8793259835       -1.1816658501       -0.0969477030
 C         -4.2495872947       -0.6491325747       -0.0314575760
 C         -4.5539380602        0.2990348623        0.8718176295
 C         -5.8899416491        0.9706359123        0.9979699366
 C         -5.9561282694        2.2401253488        0.1371973997
 C         -5.4867139351        2.0356979502       -1.3033496040
 H         -4.4188263758        1.8045638758       -1.3006832799
 H         -5.6066165437        2.9894412444       -1.8219612422
 C         -6.2413045350        0.9391046791       -2.0680034406
 H         -6.4876608263        1.3136892364       -3.0637881995
 H         -7.1825351084        0.7171583836       -1.5637634266
 C         -5.4520109871       -0.3568777425       -2.2618109951
 H         -4.4694072473       -0.1274092878       -2.6814932874
 H         -5.9845490815       -0.9728724180       -2.9912557514
 C         -5.2509274142       -1.2091924714       -1.0025618453
 H         -4.8534089701       -2.1782007037       -1.3176269458
 H         -6.2121250121       -1.3748251106       -0.5122136872
 H         -5.3244470548        3.0036374237        0.5974926613
 H         -6.9849896509        2.6047723365        0.1386458574
 H         -6.0402994869        1.2434758375        2.0439036859
 H         -6.6710711984        0.2746582348        0.6983569177
 O         -3.6480061304        0.7938724110        1.7536810353
 C         -2.3367825315        0.3524197041        1.7461493268
 O         -1.6133283491        0.8948913450        2.6068198132
 O         -2.6001503012       -2.0745056855       -0.9389826007
 C         -0.4948132268       -1.0471482512        0.8885445448
 C          0.3051784463       -0.3621317238       -0.1939776295
 C          0.1062230431       -0.6470167356       -1.5417216182
 C          0.8405992340        0.0094456928       -2.5116162105
 C          1.7991103620        0.9441487448       -2.1599856241
 C          2.0063404891        1.2357703212       -0.8177900898
 C          1.2555486562        0.5873527514        0.1539775106
 H          1.4167346141        0.8377129548        1.1921569144
 N          2.9757822661        2.1797965736       -0.4262620222
 S          4.1612044777        1.6957652908        0.6526506019
 O          3.5800017917        1.4317880017        1.9432008369
 O          5.1622726402        2.7374227733        0.5965102286
 C          4.8047617846        0.1926594973       -0.0600113043
 C          5.8646705300        0.2754953874       -0.9420116962
 C          6.3149360075       -0.8799981575       -1.5596548620
 C          5.6917938710       -2.0906442043       -1.2963266279
 C          4.6273280208       -2.1567579805       -0.4105702163
 C          4.1774756751       -1.0056539971        0.2164029343
 H          3.3546144115       -1.0193363264        0.9119850992
 H          4.1405275169       -3.0966346486       -0.2055344932
 H          6.0380436719       -2.9890596500       -1.7823793637
 H          7.1452365187       -0.8327718313       -2.2457123371
 H          6.3211343128        1.2369024943       -1.1139899970
 H          3.4025091240        2.6675533432       -1.2016593057
 H          2.3764256844        1.4520411007       -2.9179153630
 H          0.6708588781       -0.2145869183       -3.5537514182
 H         -0.6453717457       -1.3692578923       -1.8198588465
 H         -0.1273276879       -0.6773768294        1.8558294467
 C         -0.3056681443       -2.5510248390        0.8512290477
 C          0.9119005282       -3.1470181950        1.4880668531
 C         -0.4333956217       -3.3318258355        2.1227455582
 H         -0.8964078353       -4.3062990349        2.0845884605
 H         -0.6507613721       -2.7812241307        3.0270944524
 H          1.3764760171       -3.9985331399        1.0155173205
 H          1.6056337720       -2.4755925250        1.9726740129
 H         -0.6824133741       -3.0131720545       -0.0509240463
