  62
        -98.94512138
 C         -0.9489623328       -1.2373236968        0.4679554086
 C         -1.4951900952       -0.0853975240        1.0860776046
 C         -2.2551838321        0.8223771784        0.2171104642
 C         -2.3310165630        0.5571331419       -1.0995600113
 C         -3.0837780794        1.3876948369       -2.0981637161
 C         -4.5257151821        0.8896395238       -2.2671593330
 C         -5.2635289602        0.6828578554       -0.9442888837
 H         -6.2793814623        0.3626575987       -1.1852940251
 H         -4.7895173225       -0.1358289715       -0.3980065759
 C         -5.3173392800        1.9270879874       -0.0468434373
 H         -6.3320511630        2.0336507050        0.3422147013
 H         -5.1014734548        2.8183018221       -0.6371273659
 C         -4.3800424191        1.8787337863        1.1611584154
 H         -4.6567837420        2.6918933335        1.8372722253
 H         -4.5280900639        0.9399502150        1.7006677638
 C         -2.8837795554        2.0287156289        0.8570569363
 H         -2.7191783457        2.9199921215        0.2470849443
 H         -2.3660803971        2.1588023345        1.8119576034
 H         -4.5019445664       -0.0633862219       -2.8008419747
 H         -5.0693580847        1.6093801273       -2.8819547111
 H         -3.0826304631        2.4265338154       -1.7723940180
 H         -2.5650340624        1.3191601184       -3.0563880692
 O         -1.7579768396       -0.5320343590       -1.6676572636
 C         -1.0391855256       -1.4468371483       -0.9106880475
 O         -0.5581902171       -2.3822654504       -1.5766907470
 H          1.4755651521       -0.2162435381        0.5284667533
 C          1.9152171988       -1.1754939484        0.2963665322
 C          1.2407930653       -2.3342207639        0.6622525058
 C          1.8202116064       -3.5601041198        0.3681759434
 C          3.0299662621       -3.6139550018       -0.3037711848
 C          3.6684735120       -2.4588493696       -0.7153580364
 C          3.0974691198       -1.2258645028       -0.4191128485
 N          3.6998459893       -0.0224904413       -0.8178027878
 S          2.7299126239        1.2601084535       -1.2902760186
 O          1.5079519398        0.8252957630       -1.9253641698
 O          3.6058174828        2.0848588502       -2.0983095256
 C          2.3772866620        2.1267053900        0.2239437501
 C          1.0768695144        2.4842760276        0.5183379099
 C          0.8217782471        3.1815942401        1.6883523118
 C          1.8670360863        3.5073851606        2.5383610661
 C          3.1687190665        3.1442445083        2.2265478590
 C          3.4304760838        2.4492078204        1.0570900935
 H          4.4270428189        2.1517805955        0.7769483012
 H          3.9779536840        3.3995528418        2.8914823853
 H          1.6624463470        4.0463579687        3.4498895405
 H         -0.1916469174        3.4564752349        1.9324174252
 H          0.2880771317        2.1956291029       -0.1607582152
 H          4.5040384197       -0.1266755240       -1.4194905513
 H          4.5927746433       -2.5064922634       -1.2708852411
 H          3.4695506367       -4.5728357769       -0.5336193404
 H          1.3142245616       -4.4729080962        0.6364799565
 C         -0.0990946977       -2.1562579321        1.3304253828
 H          0.0602737280       -1.5786225347        2.2572017137
 C         -0.7633726313       -3.4588343643        1.7459737075
 C         -2.2564245251       -3.5830656441        1.7893004170
 C         -1.4700233891       -4.3525404170        0.7729500159
 H         -1.3782655356       -5.4213468693        0.9015529514
 H         -1.5071016926       -4.0370224001       -0.2574925741
 H         -2.7051931471       -4.1196327779        2.6117670260
 H         -2.8367894593       -2.7374775734        1.4489897721
 H         -0.2206025368       -3.9505061427        2.5476058674
 O         -1.3419739855        0.1799679623        2.3088155293
