  62
        -98.94318937
 C         -0.8321433602       -1.6876610890       -0.8430357610
 C         -1.9771234204       -2.0549716185       -0.0894600911
 C         -3.1203958699       -1.1397737178       -0.1518412410
 C         -3.0418797992       -0.0299618077       -0.9079150508
 C         -4.1297502386        0.9931725529       -1.0929181206
 C         -4.1946314781        2.0461968028        0.0214496495
 C         -4.7343933784        1.5473009428        1.3621236994
 H         -4.9324574379        2.4280060328        1.9762022096
 H         -5.6869978887        1.0400306434        1.2063767993
 C         -3.7737327990        0.6218225821        2.1219985393
 H         -2.7672780689        0.7199408416        1.7080724394
 H         -3.7212091689        0.9290918819        3.1688453194
 C         -4.1719045598       -0.8539686576        2.1032660190
 H         -5.1162809999       -0.9871299272        2.6360699889
 H         -3.4035373602       -1.4241195282        2.6318938090
 C         -4.3170502301       -1.4482677273        0.6963339689
 H         -4.3877956807       -2.5349194373        0.7884800087
 H         -5.2258361599       -1.0777129967        0.2224005889
 H         -3.1938631278        2.4557382522        0.1663365497
 H         -4.8434372176        2.8518472032       -0.3295756003
 H         -3.9195918783        1.5014749930       -2.0361436905
 H         -5.0931972589        0.4892544635       -1.1777104408
 O         -1.9373811190        0.2785386718       -1.6345928207
 C         -0.8000577894       -0.5243821689       -1.6139210307
 O          0.1239628708       -0.0886282893       -2.3226269606
 H          1.2791011407       -0.1373344304       -0.1174447106
 C          1.6130109502       -0.8784861307        0.5921469893
 C          1.2399946695       -2.2049721204        0.4264040591
 C          1.6747284989       -3.1436806109        1.3550368889
 C          2.4716172190       -2.7622607115        2.4197430790
 C          2.8599417498       -1.4433140018        2.5688772693
 C          2.4270016104       -0.4955523113        1.6479952094
 N          2.7806018712        0.8539262484        1.7814768697
 S          3.1141312718        1.7609834985        0.4119597699
 O          3.7328058214        0.9550104483       -0.6134726002
 O          3.9120852724        2.8646815579        0.9084984101
 C          1.5448485022        2.4076873795       -0.1161192701
 C          0.6661949324        2.8663044098        0.8459297500
 C         -0.5242459373        3.4460076806        0.4405982500
 C         -0.8113299171        3.5616180210       -0.9119148200
 C          0.0809429327        3.0953880206       -1.8628796800
 C          1.2737246523        2.5127829199       -1.4644940901
 H          1.9827465221        2.1196812996       -2.1749175801
 H         -0.1484055372        3.1693293910       -2.9135247700
 H         -1.7373253168        4.0162513016       -1.2285596600
 H         -1.2221827271        3.8077078208        1.1796803700
 H          0.9234422523        2.7600824295        1.8869744200
 H          3.4231896112        1.0577494979        2.5332147898
 H          3.4887681399       -1.1443442823        3.3936853794
 H          2.7998308586       -3.4992902918        3.1367872189
 H          1.3717299983       -4.1745522007        1.2449067787
 C          0.3668526393       -2.6119383697       -0.7335652111
 H         -0.0581237013       -3.5997416795       -0.4913338013
 C          1.1488850693       -2.7678258699       -2.0288736710
 C          2.4538717297       -2.0899604206       -2.3047790808
 C          2.4195500988       -3.5657183607       -2.0507556711
 H          2.5956440085       -4.2377431806       -2.8771290712
 H          2.8035483586       -3.9169092911       -1.1047296012
 H          2.6262260799       -1.7399589206       -3.3115596308
 H          2.8757501000       -1.4373599410       -1.5555146807
 H          0.4869499293       -2.8857320294       -2.8815359411
 O         -2.0408458911       -3.1104609386        0.5968881187
