  62
        -98.94487999
 C         -1.9372661982       -0.5258204113       -0.6219015473
 C         -3.0060194385       -1.3146839373       -0.1314850709
 C         -4.3432110458       -0.7231181166       -0.2460738048
 C         -4.4893443819        0.4910373552       -0.8072345121
 C         -5.7904533880        1.2167471589       -1.0190343751
 C         -6.2767959734        1.9989406427        0.2087719783
 C         -6.8121972278        1.1414330595        1.3561647012
 H         -7.5636890605        0.4510015690        0.9719301731
 H         -7.3151772182        1.8159296351        2.0519669713
 C         -5.7333337251        0.3599906866        2.1189285118
 H         -5.8953343786        0.4701599080        3.1935614801
 H         -4.7516386489        0.7856942547        1.8981928028
 C         -5.7031348554       -1.1382115465        1.8164960544
 H         -6.6336486542       -1.5991800799        2.1549861191
 H         -4.8810872311       -1.5854072086        2.3810474024
 C         -5.5002364255       -1.4791997370        0.3343305856
 H         -6.4107044079       -1.2723264696       -0.2275308888
 H         -5.2737946562       -2.5452717421        0.2554065990
 H         -7.0777079312        2.6628805655       -0.1247094153
 H         -5.4571303257        2.6235951648        0.5715207710
 H         -6.5593072482        0.5083970895       -1.3289570076
 H         -5.6213196707        1.9249288822       -1.8330843997
 O         -3.4375931110        1.2120199247       -1.2792683410
 C         -2.1369634200        0.7358548186       -1.1819993449
 O         -1.2740899472        1.5152262459       -1.6287004122
 O         -2.8489545562       -2.4569037356        0.3765932210
 C         -0.5234602942       -1.0733085485       -0.5233009200
 C          0.3047330844       -0.1600104588        0.3450629095
 C         -0.0884604472        0.0267757026        1.6691476818
 C          0.6064883259        0.8830733461        2.4992783372
 C          1.7160213141        1.5653588528        2.0298499527
 C          2.1188248458        1.3854287335        0.7126837196
 C          1.4182633001        0.5204016092       -0.1193950098
 H          1.7417846147        0.4177710158       -1.1408632342
 N          3.2266690428        2.0854616948        0.2094049220
 S          4.3796113510        1.3224943002       -0.7273939830
 O          5.4914126489        2.2471455071       -0.7527877000
 O          3.8307474567        0.9482985618       -2.0048950978
 C          4.8222641343       -0.1275220887        0.2116328441
 C          5.7479420780        0.0084056724        1.2282351857
 C          6.0549198899       -1.0944459455        2.0080640743
 C          5.4269740549       -2.3068984597        1.7651728529
 C          4.4999703939       -2.4264332036        0.7415151094
 C          4.1911613368       -1.3275737601       -0.0450475496
 H          3.4788416147       -1.3839029364       -0.8512228327
 H          4.0140091468       -3.3702439482        0.5519609047
 H          5.6630329834       -3.1648496939        2.3747215090
 H          6.7789265269       -1.0058125600        2.8019348180
 H          6.2201928131        0.9661557606        1.3757792559
 H          3.6630041424        2.7073685112        0.8741243537
 H          2.2567436933        2.2425845031        2.6734458181
 H          0.2857108019        1.0213694445        3.5207444183
 H         -0.9579737157       -0.5039532449        2.0323516275
 H         -0.6250345058       -2.0397866574       -0.0082053557
 C          0.0547486222       -1.3166719731       -1.9001161120
 C          1.1127538551       -2.3599342912       -2.0939919154
 C         -0.2749244467       -2.5947201160       -2.6092161601
 H         -0.4447230977       -2.5633902466       -3.6750162390
 H         -0.9007816199       -3.3042067917       -2.0877803356
 H          1.9006600736       -2.1673322447       -2.8074066191
 H          1.4242611552       -2.9194823899       -1.2246905408
 H          0.1088183717       -0.4167247660       -2.5027239004
