  62
        -98.93749126
 C          1.2326915874        1.2922963127        0.2327705318
 C          2.1523200836        0.8290665773        1.2038869261
 C          2.8770271929       -0.4166834438        0.8964511251
 C          2.6008701257       -1.0733554761       -0.2454048449
 C          3.1495963081       -2.3683364457       -0.8071225194
 C          4.4180813854       -2.9947107450       -0.2333339417
 C          5.6958955653       -2.1924466069       -0.4771114087
 H          5.9289946220       -2.2249171299       -1.5444158666
 H          6.5137642323       -2.6822646917        0.0559756481
 C          5.6427271901       -0.7240350515       -0.0626843397
 H          4.8975284668       -0.1996322653       -0.6644359189
 H          6.6134458802       -0.2763075686       -0.2926801452
 C          5.3543897093       -0.4715949327        1.4160641950
 H          5.5056902216        0.5951385765        1.6035631912
 H          6.0705147169       -1.0217042126        2.0296452531
 C          3.9318151449       -0.8263827530        1.8834148483
 H          3.7285546645       -0.2660049825        2.8008825833
 H          3.8462891161       -1.8837076329        2.1226963155
 H          4.5387992668       -3.9621662435       -0.7284668513
 H          4.2934076863       -3.1981796775        0.8261595650
 H          2.3369466743       -3.0972384505       -0.7216983807
 H          3.2942518159       -2.1893592280       -1.8771477014
 O          1.6510311184       -0.6273106331       -1.1160390007
 C          0.9498436673        0.5526008903       -0.9161992222
 O          0.1301576998        0.8078793983       -1.8143596895
 H         -1.0618400034        0.8352475771        1.7635446058
 C         -1.6301432553        1.3872323642        1.0241388581
 C         -0.9892107880        2.3676682229        0.2755805885
 C         -1.7259177242        3.0615672783       -0.6738793373
 C         -3.0646155855        2.7694357328       -0.8727122313
 C         -3.6967739899        1.7887974669       -0.1309182894
 C         -2.9685943650        1.0919647842        0.8249676505
 N         -3.6011306365        0.0825662852        1.5843881634
 S         -4.1811793887       -1.2380133585        0.7317308226
 O         -5.2848306127       -0.8147071281       -0.0912591167
 O         -4.4780382844       -2.2365099547        1.7345405821
 C         -2.8232884027       -1.7803770902       -0.2875508163
 C         -1.9248896267       -2.6856077217        0.2410105837
 C         -0.8469814612       -3.0865130246       -0.5306231763
 C         -0.6818290621       -2.5705602412       -1.8067180258
 C         -1.5870804717       -1.6545968895       -2.3184214203
 C         -2.6695323506       -1.2525987791       -1.5532151450
 H         -3.3935100522       -0.5430351414       -1.9188285097
 H         -1.4445727123       -1.2406809394       -3.3028541436
 H          0.1617039215       -2.8750568790       -2.4059126012
 H         -0.1403848435       -3.7979393867       -0.1322362740
 H         -2.0939258650       -3.0703729849        1.2344103178
 H         -3.0299123310       -0.2485816350        2.3496173004
 H         -4.7331054780        1.5367672205       -0.2879126431
 H         -3.6229457005        3.3102337443       -1.6218364861
 H         -1.2458268018        3.8121735779       -1.2796264370
 C          0.4824846744        2.5806157958        0.5213012338
 H          0.6264399644        2.7447116957        1.6025791241
 C          1.0451186722        3.8078624326       -0.1788118843
 C          2.5024652676        3.8976270462       -0.5171238258
 C          1.4850760108        3.7879001013       -1.6108503450
 H          1.2915398817        4.6609276128       -2.2170546217
 H          1.4005208270        2.8564572296       -2.1476426256
 H          3.1189099910        3.0364938454       -0.3032446155
 H          3.0068202599        4.8412622138       -0.3722468903
 H          0.5781070247        4.7225385018        0.1738508426
 O          2.3555064843        1.4268272087        2.2955524116
