  62
        -98.93885862
 C         -2.1028908232        1.0517017211        0.0557284029
 C         -2.8796165848        0.4968069884       -0.9924073999
 C         -3.6172073537       -0.7484990885       -0.7104055536
 C         -3.5020956398       -1.3013379625        0.5111075086
 C         -4.1691022821       -2.5414676356        1.0442575595
 C         -5.6516212908       -2.3202207002        1.3844103903
 C         -6.4409423921       -1.5396822440        0.3368687646
 H         -7.4412501976       -1.3621953875        0.7403643615
 H         -5.9729347496       -0.5647893791        0.1896057034
 C         -6.5981101674       -2.2372154314       -1.0121358082
 H         -7.2611884048       -1.6179412257       -1.6214462380
 H         -7.0892540077       -3.2011377208       -0.8620154516
 C         -5.3072513342       -2.4663743935       -1.8015643214
 H         -5.5935170163       -2.7282483254       -2.8243205969
 H         -4.7512542256       -3.3145411459       -1.4109482251
 C         -4.3981235121       -1.2457922075       -1.9030074121
 H         -3.6506960297       -1.4309189761       -2.6839218256
 H         -4.9821637079       -0.3906216843       -2.2616003126
 H         -6.1167165814       -3.2944470437        1.5441399346
 H         -5.7025235714       -1.7637513998        2.3234907375
 H         -4.0504067989       -3.3599114077        0.3402551030
 H         -3.6376962571       -2.8126715057        1.9594444222
 O         -2.7405263495       -0.7364145187        1.4896883823
 C         -2.0210316218        0.4283228509        1.2998447421
 O         -1.3773264864        0.7829382171        2.3097018585
 O         -2.9651516055        1.0286040505       -2.1319180852
 C         -1.3264740225        2.3198642351       -0.2645476958
 C          0.1071862334        1.9556465395       -0.5668929020
 C          0.5897153736        1.9855110976       -1.8703232964
 C          1.8836837859        1.5843127063       -2.1531023933
 C          2.7175046811        1.1334169921       -1.1452069272
 C          2.2401218115        1.0902419001        0.1577618600
 C          0.9526177610        1.5162159757        0.4424533053
 H          0.5841496835        1.4568610452        1.4558698487
 N          3.0706850981        0.5834584616        1.1840591696
 S          3.4048618779       -1.0637902359        1.0446236465
 O          2.3431514369       -1.7608456150        0.3526767021
 O          3.7076372186       -1.5157269834        2.3853398623
 C          4.8948891010       -1.1030057170        0.0698912998
 C          4.8856028445       -1.6918725695       -1.1792883783
 C          6.0566822309       -1.7070729267       -1.9211503644
 C          7.2094117117       -1.1365567291       -1.4031759570
 C          7.2025588074       -0.5512497970       -0.1456151549
 C          6.0355653257       -0.5332658613        0.6013753894
 H          5.9863122172       -0.0955596330        1.5843426961
 H          8.1011137983       -0.1097061285        0.2541148071
 H          8.1187164477       -1.1491592210       -1.9830700863
 H          6.0636031723       -2.1622019449       -2.8985415401
 H          3.9636124741       -2.1182112939       -1.5413078885
 H          2.6853266690        0.7546383627        2.1036677589
 H          3.7229851372        0.8088863566       -1.3585759894
 H          2.2441891876        1.6151198586       -3.1699235530
 H         -0.0679258115        2.3046639967       -2.6658515242
 H         -1.7767813949        2.7059138832       -1.1887233079
 C         -1.4352478969        3.3860373541        0.8059818505
 C         -1.1141466305        4.8055110711        0.4489201586
 C         -2.5322851840        4.4024779174        0.7171754472
 H         -3.0013342643        4.7333094025        1.6316277349
 H         -3.2107199088        4.3335194319       -0.1206023489
 H         -0.6062408282        5.4171453808        1.1785274368
 H         -0.8309243054        5.0105564122       -0.5722792762
 H         -1.1629248435        3.0396140261        1.7942925998
