  62
        -98.94437072
 C          1.8445047518       -0.7836755944       -0.2355465286
 C          2.3511082690        0.5362704725       -0.1630494878
 C          3.7858106649        0.6809197803       -0.4424223332
 C          4.5175547340       -0.3993136033       -0.7708354222
 C          5.9858077581       -0.4080535439       -1.1000618572
 C          6.9002633689       -0.4680202757        0.1311931537
 C          6.9765420490        0.8221509075        0.9485717158
 H          7.2144277153        1.6563128994        0.2877768480
 H          7.8095752741        0.7109518197        1.6455653711
 C          5.7053239886        1.1425736701        1.7473435051
 H          5.9776056764        1.4334805325        2.7644913150
 H          5.0879514956        0.2447599058        1.8264528247
 C          4.8584312162        2.2742113660        1.1647001088
 H          5.4204224784        3.2101173184        1.2032378279
 H          3.9673871884        2.3912902460        1.7870817783
 C          4.3983126118        2.0391827825       -0.2800891677
 H          5.2349693137        2.1660775550       -0.9668273256
 H          3.6310610018        2.7794491679       -0.5205119844
 H          7.9057704830       -0.7089740550       -0.2213914348
 H          6.5681665360       -1.2868512445        0.7735171733
 H          6.1637225896       -1.3003889589       -1.7040068735
 H          6.2334959764        0.4705050132       -1.6963002791
 O          3.9831015137       -1.6462859107       -0.8624636852
 C          2.6458473614       -1.8724803134       -0.5784216460
 O          2.2934236878       -3.0654137837       -0.6761677351
 H         -1.7477293786        0.6040234885        0.7305131789
 C         -1.5437030543        0.5534667864       -0.3256910736
 C         -0.5036586629       -0.2225939279       -0.8116235889
 C         -0.2739287116       -0.2461266665       -2.1857360701
 C         -1.0455767985        0.5096073267       -3.0453357276
 C         -2.0746268330        1.2952626189       -2.5555479073
 C         -2.3200527729        1.3173228306       -1.1887622401
 N         -3.3533676762        2.1070697644       -0.6661649938
 S         -4.2577714165        1.5722717870        0.6274025768
 O         -5.5007343181        2.3072821843        0.5246095878
 O         -3.5339359381        1.7385053774        1.8622015459
 C         -4.5524761573       -0.1616343068        0.3214680837
 C         -5.0345200610       -0.5465649690       -0.9142768227
 C         -5.2683271931       -1.8907160441       -1.1534505491
 C         -5.0230335231       -2.8234818259       -0.1571637797
 C         -4.5480903487       -2.4206250477        1.0808115302
 C         -4.3086955815       -1.0772898187        1.3235523713
 H         -3.9333274100       -0.7220014593        2.2692679156
 H         -4.3608509996       -3.1456125633        1.8569510339
 H         -5.2042012115       -3.8698559089       -0.3461105007
 H         -5.6397911614       -2.2071879904       -2.1147543699
 H         -5.2248556193        0.1994699571       -1.6682498654
 H         -3.9139858075        2.5918200049       -1.3506650266
 H         -2.6732974961        1.8954337110       -3.2236681132
 H         -0.8473459559        0.4874745349       -4.1063277882
 H          0.5320425460       -0.8582662698       -2.5675445626
 C          0.3840731568       -1.0519048889        0.0826972594
 H          0.2111071650       -2.1125784118       -0.1514343697
 C          0.1375809072       -0.8333824092        1.5607563719
 C         -0.9226341287       -1.6125879637        2.2761715836
 C          0.5242058519       -1.9147973411        2.5230009215
 H          0.9585143341       -1.6324205634        3.4704248479
 H          0.9375952420       -2.8217673876        2.1058501741
 H         -1.4974407917       -2.3198679774        1.6978975385
 H         -1.4811369669       -1.1172828808        3.0563034695
 H          0.3117487027        0.1924490096        1.8665343260
 O          1.6476488016        1.5412016178        0.1182570082
