  62
        -98.94047574
 C         -2.1436880382        1.2610601355        0.0610639356
 C         -2.4260597344        0.0642836846        0.7666808040
 C         -3.8200210208       -0.4007074634        0.6990353125
 C         -4.7372835252        0.3062487223        0.0166309677
 C         -6.1979065478       -0.0282657259       -0.1179777595
 C         -6.5060843467       -1.0348918725       -1.2348157150
 C         -6.0832671293       -2.4760829844       -0.9467786511
 H         -6.4822661391       -2.7845729905        0.0200627493
 H         -6.5505033451       -3.1049450639       -1.7072730837
 C         -4.5662020721       -2.7099296346       -0.9779710193
 H         -4.0789507569       -1.8788980941       -1.4933424360
 H         -4.3482312715       -3.6128793363       -1.5527810201
 C         -3.9220756549       -2.8837259830        0.3976121796
 H         -2.8439387190       -3.0013570806        0.2590397240
 H         -4.3021841272       -3.7934917819        0.8678982339
 C         -4.1506307884       -1.7070630453        1.3551879528
 H         -5.1805769738       -1.7058940680        1.7116768026
 H         -3.4828197598       -1.8290283035        2.2116451397
 H         -7.5864403819       -1.0212330456       -1.3964033935
 H         -6.0281816315       -0.6923811156       -2.1555741148
 H         -6.5763991180       -0.4086751046        0.8311913239
 H         -6.7114728493        0.9079353668       -0.3474551464
 O         -4.4288824803        1.4564129798       -0.6393116421
 C         -3.1302159972        1.9377541390       -0.6629159857
 O         -2.9825680947        2.9662509099       -1.3528540825
 O         -1.5810158940       -0.5901911073        1.4288188957
 C         -0.7422016437        1.8458055573       -0.0165392780
 C          0.2423486007        0.7556711027       -0.3580546891
 C          0.2578577083        0.2448217336       -1.6524633567
 C          1.1235677785       -0.7749660694       -2.0006535106
 C          1.9909645245       -1.3082568197       -1.0639304230
 C          1.9815607407       -0.8062440105        0.2306089057
 C          1.1219472820        0.2291954071        0.5741771315
 H          1.1081034092        0.5944053177        1.5890254387
 N          2.8552496113       -1.3485319584        1.1871314827
 S          4.4517343712       -1.5884155233        0.7596609314
 O          4.5754265035       -2.7909507658       -0.0260222972
 O          5.1862793782       -1.5686019215        2.0049973250
 C          4.8715504493       -0.1685941720       -0.2361368975
 C          4.8477836800        1.0735793040        0.3670258497
 C          5.1253572738        2.1953847789       -0.3963676887
 C          5.4175178146        2.0570827547       -1.7449261730
 C          5.4411059142        0.8031786452       -2.3348132952
 C          5.1635008860       -0.3226448519       -1.5756743506
 H          5.1710500083       -1.3154349809       -1.9949232902
 H          5.6708279968        0.6987557183       -3.3829472671
 H          5.6291271419        2.9327072780       -2.3381371504
 H          5.1100599538        3.1720060830        0.0603181870
 H          4.6248371414        1.1438428012        1.4195612716
 H          2.7667499180       -0.9408859296        2.1055779799
 H          2.6598097620       -2.1168639784       -1.3104261584
 H          1.1201974556       -1.1632861539       -3.0078913257
 H         -0.4290549345        0.6526153649       -2.3818542632
 H         -0.7777586236        2.5459961523       -0.8665127597
 C         -0.3301187033        2.6651329431        1.1974300917
 C         -1.3314832713        3.5195372675        1.9143492998
 C         -0.7439549590        2.3218981196        2.5956183171
 H         -0.0335827861        2.4868498802        3.3932135751
 H         -1.3654784629        1.4526535009        2.7400639105
 H         -1.0291371376        4.5020658925        2.2439956860
 H         -2.3581883301        3.4673046218        1.5818679982
 H          0.6626514602        3.0879690010        1.0748464455
