  62
        -98.94428462
 C          1.8280521426        1.0908679885       -0.1361478696
 C          2.3132348467       -0.0403417680       -0.8351517313
 C          3.7761441800       -0.1828000600       -0.8812004478
 C          4.5496624265        0.7473761150       -0.2922281426
 C          6.0474354429        0.6931997682       -0.2142507168
 C          6.5109899817       -0.0220144415        1.0627320784
 C          5.8173954087       -1.3622280195        1.3073681176
 H          6.2438509227       -1.7875800487        2.2184242867
 H          4.7567885605       -1.1858325577        1.5006740423
 C          5.9594490101       -2.3698062559        0.1580402750
 H          6.7857850714       -2.0777419207       -0.4910362830
 H          6.2065445970       -3.3473538649        0.5774022089
 C          4.6954953579       -2.5533933766       -0.6841886507
 H          3.8429586627       -2.7543968285       -0.0301308159
 H          4.8342103547       -3.4325720157       -1.3192226137
 C          4.3301778720       -1.3795633170       -1.6014998930
 H          3.5355946749       -1.7182399388       -2.2730936292
 H          5.1956850942       -1.1010683264       -2.2062732922
 H          6.3088078079        0.6287213449        1.9165728238
 H          7.5898885378       -0.1749678176        1.0001831357
 H          6.4333638626        0.1788390734       -1.0921505075
 H          6.4288791830        1.7155932339       -0.2062371395
 O          4.0457121131        1.8308776096        0.3520737710
 C          2.6781315777        2.0243542989        0.4566707767
 O          2.3487639195        3.0452375693        1.0935706166
 O          1.5680854392       -0.8890185314       -1.3912620746
 C          0.3315260673        1.3250283718       -0.0209417350
 C         -0.3216344173        0.1275485135        0.6232522806
 C          0.1826415336       -0.3251593434        1.8409803971
 C         -0.3583991294       -1.4318763044        2.4637238658
 C         -1.4237983781       -2.1054363246        1.8916356680
 C         -1.9400964879       -1.6577172683        0.6822097585
 C         -1.3967466539       -0.5401930309        0.0596117392
 H         -1.8048881357       -0.2274635077       -0.8866125992
 N         -3.0120734902       -2.3285469588        0.0810962107
 S         -4.1475432903       -1.5178421226       -0.8264734422
 O         -5.3070731807       -2.3846397772       -0.8023958531
 O         -3.6314577406       -1.2026318671       -2.1346032697
 C         -4.5025252135       -0.0118846684        0.0642809251
 C         -4.7126558518       -0.0691835117        1.4279915406
 C         -5.0010617826        1.1010820782        2.1109766636
 C         -5.0802729165        2.3025253848        1.4233281334
 C         -4.8764095071        2.3424818681        0.0531496873
 C         -4.5841545943        1.1749580074       -0.6338110529
 H         -4.4122334691        1.1607805543       -1.6978187519
 H         -4.9402910155        3.2763108653       -0.4822654533
 H         -5.3029915105        3.2124324270        1.9579940856
 H         -5.1618219092        1.0731278026        3.1766417106
 H         -4.6513659023       -1.0156806622        1.9394189756
 H         -3.4100891192       -3.0848149315        0.6166531082
 H         -1.8429810438       -2.9774451038        2.3700259865
 H          0.0497744598       -1.7747214999        3.4025791409
 H          1.0172095010        0.2009777234        2.2849267975
 H          0.2099806953        2.1854847208        0.6530724397
 C         -0.2410366353        1.6852924202       -1.3750413399
 C         -1.4555142951        2.5563863504       -1.4728743876
 C         -0.1120313169        3.0983425111       -1.8561727639
 H          0.0982100318        3.2706114330       -2.9011363336
 H          0.3664038573        3.8039479694       -1.1924336965
 H         -2.1668619550        2.3540067379       -2.2590779584
 H         -1.8995955997        2.9003321112       -0.5510905923
 H         -0.1177065332        0.8949317474       -2.1071254322
