  62
        -98.93816863
 C         -1.5438784278       -1.4847106225        0.2985961249
 C         -1.7659236170       -0.2620908294        0.9821698250
 C         -3.0600511657        0.4091029392        0.7664716494
 C         -3.9717329186       -0.1691082875       -0.0371030043
 C         -5.3880799787        0.2278642661       -0.3996453119
 C         -5.9366795378        1.5981013251       -0.0126171167
 C         -5.3232358161        2.7673573854       -0.7839465752
 H         -5.6966847654        2.7354103379       -1.8106255440
 H         -5.6720959811        3.6987104004       -0.3329287134
 C         -3.7984017236        2.7848005457       -0.8521120387
 H         -3.5020362352        3.6320222968       -1.4762888685
 H         -3.4431052881        1.8796632672       -1.3485643251
 C         -3.0835803936        2.9264549843        0.4894200646
 H         -2.0180935855        3.0457000586        0.2784309500
 H         -3.4309856848        3.8277500996        0.9986459625
 C         -3.2365094630        1.7355520437        1.4489337990
 H         -2.4435752426        1.7984041236        2.2002974726
 H         -4.1858510015        1.7758222982        1.9775275472
 H         -5.8430063135        1.7492448753        1.0588875556
 H         -7.0070024658        1.5811599110       -0.2354902371
 H         -5.4691301335        0.1014274452       -1.4840801501
 H         -6.0288211216       -0.5410604658        0.0460792439
 O         -3.7179260606       -1.3516877981       -0.6670940635
 C         -2.5130375161       -2.0255188745       -0.5445464238
 O         -2.4600053933       -3.0644395430       -1.2317276693
 H          2.2357578385       -1.0510990690        0.8445555263
 C          2.0136717784       -1.2577423675       -0.1906390298
 C          0.7984024020       -1.8283018158       -0.5397015369
 C          0.5459535786       -2.1020266660       -1.8799559459
 C          1.4925333940       -1.8041285058       -2.8428097806
 C          2.7002654118       -1.2259534576       -2.4926827040
 C          2.9649573344       -0.9538207683       -1.1555091673
 N          4.1934396960       -0.3994389610       -0.7730495968
 S          4.3170502760        0.6670077960        0.5060541793
 O          5.6113102078        1.2862457420        0.3203678462
 O          4.1228201430       -0.0291878230        1.7525163114
 C          3.0319544234        1.8750793090        0.2485016075
 C          3.1762150216        2.7525888430       -0.8095547998
 C          2.1848737449        3.6903238915       -1.0433491556
 C          1.0693097089        3.7356446539       -0.2195973942
 C          0.9432229563        2.8528759046        0.8405332394
 C          1.9310176837        1.9104556354        1.0774172075
 H          1.8449732607        1.2084849438        1.8903988310
 H          0.0779450048        2.8698905954        1.4835383784
 H          0.2964666530        4.4661640548       -0.4026926192
 H          2.2817502955        4.3820617191       -1.8647055504
 H          4.0645559241        2.6989923464       -1.4177900185
 H          4.8017222907       -0.1433566824       -1.5362692194
 H          3.4372633165       -0.9953231546       -3.2466252384
 H          1.2866609735       -2.0224387682       -3.8798688745
 H         -0.3955507726       -2.5511923826       -2.1566264760
 C         -0.2064657951       -2.1625846705        0.5373531931
 H          0.1684875413       -1.7371663311        1.4786181664
 C         -0.3047284394       -3.6670721488        0.7033247094
 C          0.7963704490       -4.3890197408        1.4179197350
 C         -0.5482778751       -4.2431765727        2.0641076848
 H         -1.1799356832       -5.1147195814        2.1483472968
 H         -0.6442645097       -3.5535313241        2.8903142149
 H          1.6134118966       -3.7987691323        1.8060903907
 H          1.0915232327       -5.3628803169        1.0585509616
 H         -0.7705436876       -4.1633794245       -0.1378662231
 O         -0.9166351349        0.2466049594        1.7612372388
