  62
        -98.93229897
 C          2.4772109733        0.8484994095        0.0615845038
 C          2.9127567433       -0.2838711080        0.7919970272
 C          4.0757819512       -1.0261898002        0.2709350780
 C          4.6524572052       -0.5990941511       -0.8676252265
 C          5.8615917493       -1.1580826723       -1.5694107745
 C          7.1787085737       -0.7842367095       -0.8704006087
 C          7.1612421852       -0.9201031691        0.6499130530
 H          8.1065945729       -0.5232402412        1.0294542929
 H          6.3624603682       -0.2969459577        1.0562943393
 C          7.0093688198       -2.3458827152        1.1745843585
 H          7.1039979286       -2.3026637636        2.2627345830
 H          7.8311227266       -2.9569133926        0.7944082040
 C          5.6894917321       -3.0443902243        0.8409814842
 H          5.6240969570       -3.9348660307        1.4730880596
 H          5.6800677483       -3.3952266466       -0.1874018528
 C          4.4404128145       -2.2161317165        1.1255293214
 H          3.5671276701       -2.8789594736        1.0934993929
 H          4.4815900587       -1.8464405389        2.1565531925
 H          7.9767807163       -1.4028863944       -1.2842872689
 H          7.4025013006        0.2586438267       -1.1080205490
 H          5.7689389981       -2.2352658785       -1.6715805048
 H          5.8671183167       -0.7279584412       -2.5733756252
 O          4.1966569865        0.4923243728       -1.5431633823
 C          3.1088723899        1.2391726832       -1.1193326401
 O          2.8313607319        2.1905803244       -1.8712226807
 O          2.3554255502       -0.6604226757        1.8596542808
 C          1.2871122615        1.6025333664        0.6259694241
 C         -0.0051356191        1.0735218516        0.0582379815
 C         -0.2040573553        0.9701629230       -1.3150588464
 C         -1.4028589022        0.4941043238       -1.8138857154
 C         -2.4211798208        0.1062583827       -0.9602112819
 C         -2.2319500250        0.2005198708        0.4116275555
 C         -1.0284726768        0.6847265010        0.9098758446
 H         -0.8800779106        0.7461140811        1.9797960028
 N         -3.2534472753       -0.2097927085        1.2825443962
 S         -4.8155490403        0.3439508085        1.0163994533
 O         -4.8116160118        1.6332053569        0.3656561025
 O         -5.4619759414        0.2756940870        2.3084032857
 C         -5.5306343648       -0.8828954183       -0.0571765852
 C         -5.5291828730       -2.1984226957        0.3634010870
 C         -6.0880985926       -3.1639129633       -0.4584361871
 C         -6.6386729055       -2.7994710941       -1.6782859353
 C         -6.6366838679       -1.4737256186       -2.0839796964
 C         -6.0780637581       -0.5031077968       -1.2669400234
 H         -6.0493666935        0.5388830009       -1.5436446985
 H         -7.0663697023       -1.1922824117       -3.0319797588
 H         -7.0723261804       -3.5532387866       -2.3163594295
 H         -6.0917742042       -4.1959401074       -0.1465429364
 H         -5.0954713073       -2.4402958184        1.3193633646
 H         -3.0089240239       -0.1526318542        2.2604688657
 H         -3.3552281145       -0.2665666391       -1.3472619842
 H         -1.5458984995        0.4220590353       -2.8814758977
 H          0.5886935452        1.2720729744       -1.9830283812
 H          1.2935638457        1.3631617691        1.7016054853
 C          1.4150674254        3.1144230000        0.5030294042
 C          0.5739567873        3.9545063983       -0.4053102704
 C          0.3509002856        4.0047601528        1.0745660948
 H          0.6488924429        4.8887417436        1.6176999935
 H         -0.5415552760        3.5311301488        1.4571310331
 H          1.0500553932        4.7923902927       -0.8910211459
 H         -0.1705180956        3.4670362601       -1.0144810626
 H          2.4413734978        3.4415886878        0.6363360615
