  62
        -98.94344328
 C          1.8380545405        0.5753843004        0.2689556204
 C          2.9506671303        0.6432098302        1.1404762507
 C          4.2623412904        0.7583214708        0.4937898909
 C          4.3415302506        0.8159838014       -0.8483660090
 C          5.6053610007        0.9525018220       -1.6536480087
 C          6.3267527310       -0.3773071877       -1.9130010592
 C          7.0329025210       -0.9828820481       -0.6992014494
 H          7.6720814512       -1.7872694778       -1.0686955296
 H          7.6825367707       -0.2332877282       -0.2463094589
 C          6.0855966009       -1.5555174888        0.3643792502
 H          5.0933639510       -1.6972679788       -0.0705339400
 H          6.4407581310       -2.5401605489        0.6770169898
 C          5.9559199305       -0.6996850794        1.6245119106
 H          5.2342451105       -1.1783379699        2.2916851902
 H          6.9171721604       -0.6610287094        2.1417521208
 C          5.4813638002        0.7363145306        1.3657873411
 H          6.2828237802        1.3223934710        0.9167501916
 H          5.2123310200        1.1862766201        2.3246303813
 H          5.6047359213       -1.0947250577       -2.3099129797
 H          7.0751719611       -0.1960767372       -2.6878774790
 H          6.2845296705        1.6452209420       -1.1559978783
 H          5.3156539808        1.3797204524       -2.6159689086
 O          3.2446750507        0.7736178915       -1.6506607892
 C          1.9706410807        0.6314873910       -1.1187027895
 O          1.0625456308        0.5745553012       -1.9684990697
 O          2.8519045301        0.6059973496        2.3969385106
 C          0.4496031904        0.4320387698        0.8615372601
 C         -0.2233724193       -0.8263153201        0.3706200994
 C          0.5215967010       -1.9957350499        0.2405888390
 C         -0.0651886187       -3.1637068498       -0.2044802516
 C         -1.4152789486       -3.1991587800       -0.5058842419
 C         -2.1737215589       -2.0453354302       -0.3594309715
 C         -1.5763796092       -0.8676680803        0.0702069692
 H         -2.1835996594        0.0160719395        0.1746602695
 N         -3.5449016488       -2.0456366204       -0.6561177417
 S         -4.6108427392       -1.2532871711        0.3622110585
 O         -4.1526919194       -1.2714924316        1.7316144785
 O         -5.8901539990       -1.8843949512        0.1137759980
 C         -4.6775576894        0.4190656892       -0.2437018008
 C         -4.6419736392        0.6446023698       -1.6054982207
 C         -4.7466298394        1.9458636900       -2.0702276501
 C         -4.8951020998        2.9926432596       -1.1728109596
 C         -4.9351572700        2.7488134689        0.1911767503
 C         -4.8253394298        1.4498313088        0.6629829497
 H         -4.8390363599        1.2167125083        1.7157511196
 H         -5.0501780703        3.5635996786        0.8884947806
 H         -4.9780929700        4.0041353497       -1.5381746392
 H         -4.7121794093        2.1396364805       -3.1302818600
 H         -4.5235604589       -0.1906426098       -2.2752899210
 H         -3.9132895286       -2.9368958603       -0.9553134622
 H         -1.8770994084       -4.1118873599       -0.8510021424
 H          0.5306676115       -4.0579483297       -0.3104371419
 H          1.5744912610       -1.9752468798        0.4874502692
 H          0.6039052502        0.3301395993        1.9470474801
 C         -0.3594383198        1.6866062097        0.6032852006
 C         -1.3911610701        2.1449512491        1.5886930406
 C         -0.1023945302        2.8963024794        1.4494776212
 H         -0.1188453904        3.8677965296        0.9792583416
 H          0.6343480396        2.8028345092        2.2340441713
 H         -2.2930042201        2.6018928790        1.2101285606
 H         -1.5399197601        1.5446164686        2.4739706403
 H         -0.5530344297        1.8440367202       -0.4520023894
