  62
        -98.94251168
 C         -1.4904895308       -1.0886483991        0.2313541911
 C         -2.4891771707       -0.7788402176        1.1880458906
 C         -3.1376361803        0.5298215125        1.0439999090
 C         -2.7115496999        1.3827927412        0.0953600580
 C         -3.2513978994        2.7644054410       -0.1577063337
 C         -4.5058250794        2.7907740904       -1.0418947838
 C         -5.7859496996        2.2910016916       -0.3710858333
 H         -5.9275165695        2.8136997329        0.5754998461
 H         -6.6175650395        2.5673436211       -1.0223192937
 C         -5.8278642301        0.7746168820       -0.1352572514
 H         -6.7982774902        0.3835960919       -0.4492276910
 H         -5.0719983603        0.2885496709       -0.7566261008
 C         -5.6196363604        0.3530561037        1.3195588591
 H         -6.4464662203        0.7226204347        1.9301381786
 H         -5.6307531607       -0.7392159963        1.3655424104
 C         -4.3014784702        0.8403886540        1.9355931286
 H         -4.3537795399        1.9100382742        2.1385491173
 H         -4.1476984704        0.3120777551        2.8799982992
 H         -4.6647512390        3.8265362301       -1.3507397951
 H         -4.3125674695        2.2015266092       -1.9412016531
 H         -3.4646515793        3.2551433323        0.7925164457
 H         -2.4618216692        3.3218503301       -0.6660051444
 O         -1.6930104200        1.0819605898       -0.7514911616
 C         -1.0741950704       -0.1651253604       -0.7302591900
 O         -0.1881643104       -0.2998971618       -1.5905517298
 O         -2.8162917810       -1.5553153063        2.1255612216
 C         -0.8063627113       -2.4401710292        0.3362279828
 C          0.6884226388       -2.2643024598        0.2362761526
 C          1.4889472186       -2.9254537912       -0.6845859765
 C          2.8513054387       -2.6821483518       -0.7321116468
 C          3.4420368090       -1.7751657009        0.1270111122
 C          2.6484632992       -1.1055580995        1.0501136813
 C          1.2891391591       -1.3627694290        1.1074636315
 H          0.6734154492       -0.8359503379        1.8269556909
 N          3.2346139594       -0.1564089987        1.9098196202
 S          4.1955450199        1.0132926701        1.1891918788
 O          5.5099772997        0.4685154794        0.9557026795
 O          4.1364517902        2.1504599012        2.0817729274
 C          3.4092151301        1.3932302485       -0.3648434517
 C          4.0244235700        1.0487111968       -1.5502555713
 C          3.3761658602        1.3230210456       -2.7434383416
 C          2.1316429904        1.9315214960       -2.7297468524
 C          1.5281300505        2.2744900977       -1.5303627029
 C          2.1700086703        2.0008793890       -0.3348943125
 H          1.7264138603        2.2542811703        0.6158507771
 H          0.5527873906        2.7339807281       -1.5232936335
 H          1.6211856305        2.1345978251       -3.6576917327
 H          3.8398011102        1.0552224443       -3.6792668913
 H          4.9928117199        0.5768128565       -1.5157868606
 H          2.5748110296        0.2743058423        2.5413858796
 H          4.4991858691       -1.5668715313        0.0965426120
 H          3.4604668986       -3.2004511329       -1.4566878461
 H          1.0450550584       -3.6141303419       -1.3839989257
 H         -1.0387252314       -2.7843123779        1.3586149732
 C         -1.3592505916       -3.4959019502       -0.6094059560
 C         -2.7594110715       -3.4038718903       -1.1363476062
 C         -1.5971087114       -3.2188842619       -2.0626525663
 H         -1.3829168716       -4.0019166628       -2.7752968954
 H         -1.3752138610       -2.2268566924       -2.4227549475
 H         -3.3404039618       -4.3111232802       -1.2094791051
 H         -3.3418398112       -2.5352932798       -0.8646192173
 H         -1.0107427119       -4.4918268100       -0.3535980648
