  62
        -98.94355573
 C         -0.9397757211       -1.6262002806       -0.3624953614
 C         -1.2142105227       -0.2573706088       -0.6089259996
 C         -2.3442980512        0.3081744771        0.1442607192
 C         -2.9761925867       -0.4293537472        1.0725576746
 C         -4.1072463814        0.0287276698        1.9533564950
 C         -5.4915415063       -0.0670689520        1.2971218454
 C         -5.7684080791        0.9709617458        0.2089493132
 H         -6.8374832926        0.9289436339       -0.0087576305
 H         -5.5538782350        1.9669064050        0.5976573681
 C         -4.9887526191        0.7446090439       -1.0937687982
 H         -4.6065608892       -0.2785470254       -1.1149272237
 H         -5.6644600197        0.8522418754       -1.9451934530
 C         -3.8253878670        1.7118908654       -1.3122634377
 H         -3.3245030874        1.4399346678       -2.2445409721
 H         -4.2109272159        2.7280627214       -1.4194228499
 C         -2.7758582703        1.7034676591       -0.1925690973
 H         -3.1635054791        2.2059877278        0.6938954498
 H         -1.8930099055        2.2410829557       -0.5449670032
 H         -5.6118257883       -1.0711171212        0.8836207405
 H         -6.2354298083        0.0579479991        2.0874228613
 H         -3.9246203527        1.0537494927        2.2782330646
 H         -4.0959189336       -0.6189802281        2.8329252202
 O         -2.6300388229       -1.7178835834        1.3387802324
 C         -1.6287928950       -2.3451983892        0.6167344126
 O         -1.4462479071       -3.5399632677        0.9324905909
 O         -0.5712349074        0.4706970319       -1.4058725025
 C          0.1626950443       -2.3999370457       -1.0697397191
 C          1.4449946253       -2.2931292691       -0.2860410373
 C          2.2065069375       -3.4142818855        0.0203902452
 C          3.3642594396       -3.2909868938        0.7688171787
 C          3.7753100613       -2.0547057678        1.2340946633
 C          3.0197075422       -0.9274257721        0.9303495761
 C          1.8736207956       -1.0515870505        0.1610683456
 H          1.2907862626       -0.1751014602       -0.0691225379
 N          3.4099437208        0.3468559869        1.3628137323
 S          2.2625718588        1.5254798090        1.6687801242
 O          2.9572111192        2.4861363631        2.5039011472
 O          1.0560978549        0.9690211693        2.2397099124
 C          1.9314102890        2.2870650124        0.0948107036
 C          0.7995960319        3.0697744821       -0.0053025255
 C          0.5297600284        3.7114211282       -1.2027132859
 C          1.3916851262        3.5566760946       -2.2761289724
 C          2.5254622215        2.7692680499       -2.1585566324
 C          2.8051763047        2.1306921727       -0.9612512065
 H          3.6756155259        1.5064344409       -0.8431946789
 H          3.1912446654        2.6446165446       -2.9975762914
 H          1.1736447226        4.0485099800       -3.2110384185
 H         -0.3546526693        4.3219228385       -1.2963836573
 H          0.1466969664        3.1467471535        0.8505599484
 H          4.1781803790        0.3753429960        2.0163555724
 H          4.6685198594       -1.9607772431        1.8325512676
 H          3.9465328752       -4.1687425413        1.0048095586
 H          1.8749924605       -4.3869057538       -0.3124435623
 H         -0.1547163918       -3.4550218563       -1.0406129610
 C          0.3262052969       -2.0150350161       -2.5332716195
 C          1.4649395664       -1.1944862219       -3.0511248045
 C          1.4000752871       -2.6580370401       -3.3607893551
 H          1.1612528619       -2.9673135074       -4.3670488825
 H          2.0963665175       -3.3071544190       -2.8514134509
 H          1.2488816003       -0.4830765681       -3.8328738392
 H          2.2062171894       -0.8512909943       -2.3471317164
 H         -0.6336725201       -1.8613277327       -3.0156796408
