  62
        -98.94125342
 C          1.0371519332        1.6367279208       -0.1005901180
 C          1.2841135025        0.3131997442       -0.5434297003
 C          2.4674485526       -0.3420223681        0.0427773735
 C          3.1572476854        0.2749611528        1.0173611948
 C          4.3856967349       -0.2732683107        1.6828215627
 C          5.6612384755        0.2010980595        0.9729664573
 C          5.6270761985        0.0146371701       -0.5439030821
 H          4.8607709803        0.6692533885       -0.9657033474
 H          6.5888546568        0.3534515452       -0.9353930641
 C          5.3682348027       -1.4279656371       -1.0001514246
 H          5.5724839116       -2.1174060251       -0.1804488459
 H          6.0634420032       -1.6688199028       -1.8072271581
 C          3.9577933425       -1.6810981570       -1.5364690638
 H          3.7143063159       -0.9301033796       -2.2924584844
 H          3.9543034046       -2.6553702035       -2.0321803873
 C          2.8349184778       -1.6972397501       -0.4911681191
 H          1.9324035834       -2.0767205778       -0.9773092721
 H          3.0996701606       -2.3741593474        0.3227054354
 H          6.5116090219       -0.3419830966        1.3893306555
 H          5.8007269775        1.2639274880        1.1838770357
 H          4.4030796587        0.0801005534        2.7151217228
 H          4.3390386181       -1.3602516560        1.6806699352
 O          2.8312704739        1.5078762046        1.4843098244
 C          1.7987229920        2.2285367572        0.9118021441
 O          1.6523133714        3.3739348083        1.3846558069
 H         -1.3514989415        0.1935769338       -0.0708921290
 C         -1.8706149143        1.0545251537        0.3212157982
 C         -1.3535561196        2.3251529436        0.1085923855
 C         -2.0322974934        3.4216524073        0.6281478992
 C         -3.2065283617        3.2509157887        1.3388583802
 C         -3.7332482946        1.9862034623        1.5267306893
 C         -3.0607174599        0.8830157965        1.0132487657
 N         -3.5609816916       -0.4133781319        1.2008407971
 S         -3.4620567290       -1.5230915575       -0.0502000372
 O         -3.5368746313       -0.8750245079       -1.3377511341
 O         -4.5206937004       -2.4730909549        0.2321378657
 C         -1.9123069341       -2.3648038077        0.1754435159
 C         -1.3305337073       -2.9727970957       -0.9179833643
 C         -0.1900928246       -3.7364278508       -0.7312583411
 C          0.3486520670       -3.8737758492        0.5384519853
 C         -0.2391175657       -3.2434261979        1.6235090463
 C         -1.3863029167       -2.4869995143        1.4453353246
 H         -1.8701328857       -1.9872036867        2.2684345720
 H          0.1897497972       -3.3406253833        2.6081638909
 H          1.2357683157       -4.4707616903        0.6805226099
 H          0.2745947490       -4.2182934662       -1.5768595948
 H         -1.7726693927       -2.8283281054       -1.8906455577
 H         -4.4529367094       -0.4643821713        1.6714961896
 H         -4.6556858952        1.8491042943        2.0705048706
 H         -3.7213924075        4.1096931940        1.7420548329
 H         -1.6240367360        4.4111482938        0.4830886402
 C         -0.0719435759        2.5136157806       -0.6598582859
 H          0.2646592916        3.5479389767       -0.4808525619
 C         -0.2535604080        2.3646299325       -2.1639771319
 C         -1.3840303071        1.6299520308       -2.8121822063
 C         -1.3395350368        3.1260056135       -2.8660407264
 H         -1.1134163150        3.6063084490       -3.8062051341
 H         -2.0428622970        3.6672398162       -2.2507660108
 H         -1.1593917659        1.0727817933       -3.7095633106
 H         -2.1267081624        1.1492288135       -2.1943078742
 H          0.7032196451        2.3064424238       -2.6747966708
 O          0.5776534036       -0.3048786782       -1.3796645187
