  62
        -98.94422265
 C          1.9754404996        1.1732729992       -0.1844556795
 C          2.3862955397       -0.0142070807       -0.8366326599
 C          3.8322682997       -0.2836608606       -0.8210666099
 C          4.6612886596        0.5881835192       -0.2188972296
 C          6.1447567896        0.4069800392       -0.0819266996
 C          6.4974009396       -0.3197024312        1.2236206002
 C          5.6829406896       -1.5910495712        1.4632042798
 H          6.0378012996       -2.0334553915        2.3965385297
 H          4.6349121196       -1.3214679013        1.6132766299
 C          5.7804374297       -2.6291433609        0.3366203596
 H          6.6522328997       -2.4212740707       -0.2848483103
 H          5.9269096697       -3.6159109410        0.7808813693
 C          4.5372836897       -2.7206098607       -0.5503545705
 H          3.6473709597       -2.8366480909        0.0738440794
 H          4.6236475997       -3.6200921005       -1.1659568508
 C          4.3070613297       -1.5377652804       -1.4993351502
 H          5.2144286197       -1.3456831803       -2.0757499501
 H          3.5112224297       -1.8208198203       -2.1948084403
 H          7.5608338796       -0.5649164711        1.2054193902
 H          6.3198926995        0.3625739986        2.0580450104
 H          6.5167406797       -0.1561719806       -0.9355786897
 H          6.6127088496        1.3928052792       -0.0764411093
 O          4.2293357996        1.7245182390        0.3852381107
 C          2.8815376796        2.0394843290        0.4283391807
 O          2.6196214495        3.0994892888        1.0318835210
 H         -1.4877713203       -0.1730035607       -1.0346992600
 C         -1.2276448104       -0.3164748209       -0.0002533201
 C         -0.2516531004        0.4611067089        0.6005251902
 C          0.0743241295        0.2151313085        1.9329937801
 C         -0.5533661805       -0.7910750817        2.6397575498
 C         -1.5262615104       -1.5686637515        2.0350941796
 C         -1.8595729004       -1.3324836612        0.7070638896
 N         -2.8208447903       -2.1302732210        0.0690460894
 S         -3.9739907303       -1.4877295307       -0.9521133905
 O         -4.9180116703       -2.5658000207       -1.1468947908
 O         -3.3613367103       -0.9513098404       -2.1395579603
 C         -4.7391301504       -0.1851670410       -0.0041098002
 C         -5.7699781104       -0.5165949813        0.8539922597
 C         -6.3393281604        0.4762161885        1.6343193599
 C         -5.8644904905        1.7765126785        1.5503501003
 C         -4.8282237704        2.0923562988        0.6854929204
 C         -4.2568305704        1.1043062890       -0.1011170698
 H         -3.4539315904        1.3154507992       -0.7875489997
 H         -4.4611567704        3.1041488288        0.6187087107
 H         -6.3060878805        2.5494252284        2.1594213905
 H         -7.1485179805        0.2344783683        2.3044197098
 H         -6.1162125404       -1.5371250313        0.8793475894
 H         -3.2205185203       -2.8509724712        0.6516677391
 H         -2.0123400904       -2.3620471217        2.5823280093
 H         -0.2862568205       -0.9727986019        3.6699086098
 H          0.8389451095        0.8213335384        2.4002984003
 C          0.5029007996        1.5463055391       -0.1275950795
 H          0.4492068896        2.4636965789        0.4758364708
 C         -0.0223965503        1.8476492695       -1.5145391694
 C         -1.1905443404        2.7696293595       -1.6870943292
 C          0.1837599097        3.2182559796       -2.0828869990
 H          0.4161791697        3.3110788199       -3.1331656590
 H          0.6855341496        3.9436466595       -1.4587888788
 H         -1.9046632603        2.5551353397       -2.4687006493
 H         -1.6201623504        3.2012246093       -0.7954105491
 H          0.0719451097        1.0104355897       -2.1964902697
 O          1.5943356397       -0.8105072205       -1.4051153001
