  62
        -98.94523447
 C         -2.4580056896       -1.2243862175       -0.0832140187
 C         -3.4849168105       -0.7496061417        0.7730029266
 C         -4.3016611503        0.3513116477        0.2534602081
 C         -4.0544318408        0.8420730933       -0.9744741808
 C         -4.8063065151        1.9559501949       -1.6508692443
 C         -4.3211735782        3.3590490411       -1.2610542989
 C         -4.7002762844        3.8093887907        0.1503961714
 H         -5.7727437850        3.6771652011        0.2966858046
 H         -4.4921279512        4.8794544158        0.2107923891
 C         -3.9332067440        3.0942929957        1.2715572544
 H         -3.5850051038        3.8298106777        2.0002719190
 H         -3.0439280502        2.6134302644        0.8561293341
 C         -4.7508969217        2.0524662450        2.0353827251
 H         -5.5669424066        2.5462065273        2.5674561066
 H         -4.0990232514        1.5837081194        2.7767502145
 C         -5.3421255211        0.9431303553        1.1556731348
 H         -6.1766736366        1.3300132814        0.5716535858
 H         -5.7084962347        0.1468895781        1.8080379123
 H         -4.7561845709        4.0637789694       -1.9735618946
 H         -3.2351527805        3.3977901354       -1.3771624681
 H         -5.8710993953        1.8643908875       -1.4350016296
 H         -4.6556520806        1.8257770826       -2.7247123388
 O         -3.0702400715        0.3506752302       -1.7722255813
 C         -2.2325202224       -0.6695497311       -1.3429777342
 O         -1.3613441608       -0.9852147788       -2.1778153601
 O         -3.7093174812       -1.2281626385        1.9158685243
 C         -1.5553924014       -2.3285847212        0.4450680273
 C         -0.2168965006       -1.7093603992        0.7631151264
 C         -0.0165009271       -1.1111773271        2.0040787005
 C          1.1692295764       -0.4611741679        2.2910302356
 C          2.1743958265       -0.3814320026        1.3426913973
 C          1.9764700269       -0.9591816922        0.0964005823
 C          0.7966141450       -1.6362516016       -0.1802327073
 H          0.6500838538       -2.0664412793       -1.1584830699
 N          2.9826423707       -0.8555838998       -0.8829805211
 S          3.5573864421        0.6890727293       -1.2178961712
 O          2.5715984836        1.7037933946       -0.9229768704
 O          4.0387258626        0.6317566304       -2.5812214244
 C          4.9544857797        0.8579470712       -0.1247623170
 C          5.0196482376        1.9212620437        0.7541528727
 C          6.1200137901        2.0336335831        1.5900272244
 C          7.1308690777        1.0866369319        1.5312876224
 C          7.0518262292        0.0261522136        0.6407625272
 C          5.9550932660       -0.0914595070       -0.1979087459
 H          5.8561114535       -0.8966497109       -0.9064540664
 H          7.8400551413       -0.7080668019        0.5977238061
 H          7.9852378343        1.1758017562        2.1835004789
 H          6.1829273242        2.8576494947        2.2825089169
 H          4.2068593318        2.6301097222        0.7679002383
 H          2.7399367933       -1.3244604543       -1.7447994387
 H          3.0963024514        0.1357155706        1.5530233582
 H          1.3117209892       -0.0062461323        3.2594580889
 H         -0.8122623779       -1.1476328894        2.7348296968
 H         -2.0154443512       -2.6496596262        1.3891117693
 C         -1.4757232923       -3.5195379796       -0.4858640067
 C         -0.9110121641       -4.8089239045        0.0286005784
 C         -2.3782379804       -4.6923133458       -0.2517320047
 H         -2.7835157927       -5.2077163763       -1.1095864927
 H         -3.0569876194       -4.6411539186        0.5868589717
 H         -0.3063626326       -5.4084999236       -0.6343997552
 H         -0.5926540611       -4.8346727080        1.0596858273
 H         -1.2745943335       -3.2523693456       -1.5157878333
