  62
        -98.93593513
 C         -2.1919141233       -1.4507851702        0.1819674402
 C         -1.8484821853       -0.3820353534       -0.6811384847
 C         -2.9047206750        0.6234274074       -0.8991012081
 C         -4.1231717282        0.4414921014       -0.3613356726
 C         -5.2836619560        1.3816787938       -0.5099434201
 C         -5.3361500441        2.3970608588        0.6394742092
 C         -4.0006423843        3.0893167460        0.9095008981
 H         -4.1653305708        3.8120215891        1.7115258220
 H         -3.2871187171        2.3512285630        1.2831119528
 C         -3.3992319447        3.8043370992       -0.3083141069
 H         -3.0348847101        4.7840562481        0.0076641678
 H         -4.1721792753        3.9738732380       -1.0586843143
 C         -2.2165126600        3.0755997585       -0.9494867130
 H         -1.4993358407        2.8024050594       -0.1713145841
 H         -1.7223575968        3.7712368510       -1.6334689179
 C         -2.5577378296        1.8124608881       -1.7506933394
 H         -3.3595041066        2.0295948693       -2.4594105959
 H         -1.6683625512        1.5244106554       -2.3188921324
 H         -5.6426785834        1.8756482992        1.5492321852
 H         -6.0961297225        3.1446708562        0.4047364658
 H         -6.2024291018        0.7924107468       -0.5038604212
 H         -5.2043394313        1.9000172477       -1.4635976481
 O         -4.4308648244       -0.6253260731        0.4195979129
 C         -3.4743861268       -1.5731562638        0.7285153841
 O         -3.8789261459       -2.4778528514        1.4870550468
 O         -0.7376553338       -0.2508027297       -1.2560465302
 C         -1.2383591116       -2.5847534437        0.5512964315
 C          0.1472915845       -2.0829143382        0.8649486100
 C          0.4261601202       -1.7343950271        2.1856682994
 C          1.6638606786       -1.2392892470        2.5518670814
 C          2.6638576185       -1.0770348092        1.6092651097
 C          2.3957065466       -1.4078770279        0.2887871376
 C          1.1503315223       -1.9058157388       -0.0747498909
 H          0.9720864365       -2.1130698253       -1.1149618582
 N          3.3862449249       -1.2513880357       -0.6925270918
 S          4.4762713338        0.0037860316       -0.5907206196
 O          4.9421569071        0.2041681100       -1.9457074358
 O          5.4974744069       -0.3204103493        0.3762375174
 C          3.5785099025        1.4460110785       -0.0417906658
 C          2.3609100289        1.7489259465       -0.6176554434
 C          1.7060181837        2.9039646826       -0.2213347232
 C          2.2696146098        3.7296679160        0.7387238501
 C          3.4905171412        3.4082300101        1.3111673795
 C          4.1533743374        2.2575874349        0.9162527558
 H          5.1038378042        1.9678102418        1.3346666204
 H          3.9273797013        4.0490016349        2.0601871963
 H          1.7521897851        4.6262978050        1.0417255647
 H          0.7545060528        3.1471680326       -0.6658178000
 H          1.9192428932        1.0905570398       -1.3487780293
 H          3.0577186868       -1.3829342592       -1.6374794926
 H          3.6398333325       -0.7071536139        1.8788365931
 H          1.8542162768       -0.9784856726        3.5817609386
 H         -0.3482584442       -1.8515573457        2.9312062415
 H         -1.6431145444       -2.9776505755        1.4970569980
 C         -1.4042524182       -3.7304629264       -0.4443937119
 C         -1.0197158888       -3.6721664619       -1.8913011199
 C         -0.2915352953       -4.5922319602       -0.9566043330
 H         -0.4747907875       -5.6526975922       -1.0461971543
 H          0.7184459964       -4.3468974387       -0.6685230839
 H         -1.7013797155       -4.1072745706       -2.6086440463
 H         -0.5339056074       -2.7829368837       -2.2595981751
 H         -2.3445957690       -4.2378658274       -0.2440816308
