  62
        -98.93911579
 C         -2.4756441202       -1.0341934594        0.3730526960
 C         -2.6714450023        0.1487997738        1.1340983402
 C         -3.9419888844        0.8521206570        0.9322029538
 C         -4.8541552146        0.3456034559        0.0832300890
 C         -6.2103692424        0.9259845249       -0.2128798420
 C         -6.1973604376        2.0336600102       -1.2751597409
 C         -5.6008950657        3.3655859937       -0.8185033074
 H         -5.8536636095        4.1072550297       -1.5787277045
 H         -6.0779265656        3.6766495741        0.1113448671
 C         -4.0766769353        3.3474106064       -0.6359044246
 H         -3.6571574435        2.4780826503       -1.1478720191
 H         -3.6424952886        4.2335814465       -1.1042792661
 C         -3.6121710534        3.3328123190        0.8206549208
 H         -3.9092875638        4.2629926812        1.3102736763
 H         -2.5201365786        3.2800427392        0.8319747518
 C         -4.1503185454        2.1548855192        1.6434314305
 H         -3.5960301098        2.1119440773        2.5843295516
 H         -5.2070796895        2.3022557469        1.8656510050
 H         -7.2329092116        2.2080550136       -1.5759970894
 H         -5.6528556086        1.6717543667       -2.1502430548
 H         -6.6533962777        1.3076994119        0.7073651167
 H         -6.8262116693        0.1027249283       -0.5809716768
 O         -4.6432181694       -0.8038404283       -0.6069851034
 C         -3.4518998674       -1.5095018083       -0.5033580146
 O         -3.4170361538       -2.5223232112       -1.2289033755
 O         -1.8242532996        0.5913637503        1.9566326649
 C         -1.1517028337       -1.7543665280        0.5625268638
 C         -0.1851494418       -1.4424488866       -0.5557411169
 C         -0.3847405940       -1.9165219401       -1.8486420326
 C          0.5329248629       -1.6362021342       -2.8441837063
 C          1.6706474935       -0.8977652471       -2.5700784211
 C          1.8725314708       -0.4085443089       -1.2848588525
 C          0.9418336355       -0.6776147566       -0.2908216483
 H          1.1073133052       -0.2837992231        0.7018254593
 N          3.0032920473        0.3666322932       -0.9820960993
 S          3.6990613269        0.2044964853        0.5481564817
 O          3.7383233093       -1.1897183683        0.9280481852
 O          3.0316752613        1.0978654702        1.4612747826
 C          5.3467855249        0.8016699617        0.2192896742
 C          5.5670169517        2.1660711838        0.1980500386
 C          6.8398786760        2.6342988842       -0.0866006833
 C          7.8650870592        1.7360616312       -0.3440167076
 C          7.6291561721        0.3697499465       -0.3173846085
 C          6.3581355763       -0.1054540465       -0.0346085010
 H          6.1293932564       -1.1583275441        0.0057619159
 H          8.4288499914       -0.3258594708       -0.5145376508
 H          8.8549684219        2.1035376481       -0.5637986030
 H          7.0278569929        3.6956922496       -0.1052145075
 H          4.7415899568        2.8243826697        0.4141038605
 H          3.6983127099        0.3522262933       -1.7160792698
 H          2.3926979599       -0.6937334107       -3.3462110116
 H          0.3667161309       -2.0090563755       -3.8436904244
 H         -1.2709466980       -2.4923067923       -2.0654122308
 H         -0.7279738816       -1.3324862236        1.4849233462
 C         -1.2936616386       -3.2530375448        0.7466968981
 C         -0.1418649276       -4.0156926390        1.3272580378
 C         -1.3911886412       -3.8162931433        2.1308674001
 H         -2.0388270525       -4.6639810990        2.2972167757
 H         -1.3601202424       -3.1209308768        2.9573420997
 H          0.0693749424       -5.0014083931        0.9420561173
 H          0.7392613968       -3.4545079816        1.6039592044
 H         -1.8775672745       -3.7317116026       -0.0283052740
