  62
        -98.94105759
 C         -1.7416213602       -0.9705531224        0.2776207399
 C         -2.1585736326        0.3740667277        0.4388743213
 C         -3.6066858942        0.5741956568        0.6049770299
 C         -4.4344637288       -0.4839712116        0.6525472057
 C         -5.9272105969       -0.4374837876        0.8350098656
 C         -6.7071749083       -0.1950648834       -0.4644395125
 C         -6.6176500830        1.2259333381       -1.0224533672
 H         -7.3775086762        1.3125788361       -1.8016931466
 H         -6.8726737853        1.9398388090       -0.2386273708
 C         -5.2519272451        1.5859019319       -1.6241447284
 H         -4.6860001545        0.6717655896       -1.8183248003
 H         -5.3968466738        2.0813444235       -2.5868551014
 C         -4.4036272502        2.5181957539       -0.7588763273
 H         -3.4465373894        2.6782881508       -1.2627414052
 H         -4.9001417909        3.4869463323       -0.6685332525
 C         -4.1145407054        1.9836574044        0.6500561628
 H         -5.0103924739        2.0470673389        1.2674153480
 H         -3.3338945474        2.6031237113        1.0988159340
 H         -6.3595481225       -0.9048802598       -1.2186572371
 H         -7.7572967829       -0.4159412139       -0.2599048187
 H         -6.2212705602       -1.4095065143        1.2368595949
 H         -6.1837854060        0.3319149806        1.5637211515
 O         -3.9859484168       -1.7641408272        0.5600875009
 C         -2.6425891187       -2.0363752680        0.3583339743
 O         -2.3757498321       -3.2520972607        0.2819728285
 O         -1.3827444028        1.3637458514        0.4491949486
 C         -0.2847910158       -1.3398815278        0.0560789629
 C          0.6064759468       -0.5594149456        0.9893292828
 C          0.4944849228       -0.7800220417        2.3600486474
 C          1.2871831429       -0.0879290866        3.2541700690
 C          2.2270565920        0.8212066525        2.8000376815
 C          2.3458325003        1.0488160649        1.4349348219
 C          1.5383101271        0.3612386197        0.5386853759
 H          1.6173425252        0.5945889189       -0.5091613161
 N          3.2876346966        1.9618603216        0.9416645545
 S          4.0546268543        1.6731916106       -0.5098856094
 O          5.3049893981        2.3959116544       -0.4056545053
 O          3.2132465707        2.0414500859       -1.6201715680
 C          4.3688948687       -0.0841632618       -0.5406571639
 C          3.9342259201       -0.8359793081       -1.6127188817
 C          4.1772936289       -2.2004280503       -1.6198760281
 C          4.8460926644       -2.7872523296       -0.5571663646
 C          5.2834533185       -2.0175215583        0.5099025996
 C          5.0453611234       -0.6529417567        0.5203612255
 H          5.3800049394       -0.0280699697        1.3321184866
 H          5.8063235482       -2.4769165988        1.3331478258
 H          5.0280004351       -3.8503487834       -0.5620990146
 H          3.8399417010       -2.8001489997       -2.4504476716
 H          3.4124599175       -0.3396625605       -2.4156413694
 H          3.9034195116        2.3655718931        1.6310437263
 H          2.8499201598        1.3620382063        3.4961162780
 H          1.1803761754       -0.2619938065        4.3142944775
 H         -0.2371232949       -1.4937761259        2.7144297739
 H         -0.2160708324       -2.4032061266        0.3394697675
 C          0.1619103949       -1.2487843613       -1.3954378892
 C         -0.7935644564       -1.5023825570       -2.5217135723
 C         -0.2548060790       -0.1236753471       -2.2920972149
 H          0.4690516227        0.2759469798       -2.9881666567
 H         -0.9121019399        0.6262462517       -1.8806981118
 H         -0.4423316809       -2.0587144733       -3.3775964353
 H         -1.8258560249       -1.6972859439       -2.2690227746
 H          1.1712394687       -1.6270752909       -1.5271659841
