  62
        -98.93222738
 C          2.6253416274        1.2234704193        0.2345886783
 C          3.0298323023        0.2982946937        1.2285999300
 C          4.2468625973       -0.4855403314        0.9594454818
 C          4.9070990915       -0.2808966850       -0.1933174391
 C          6.1328884318       -0.9957126793       -0.6913984759
 C          5.7440258270       -2.1885280580       -1.5812911998
 C          5.4955404169       -3.4971141063       -0.8323543587
 H          5.1097607653       -4.2178444674       -1.5569682425
 H          6.4467241257       -3.8837232695       -0.4603995790
 C          4.5137539436       -3.4040857698        0.3385396378
 H          3.6557264396       -2.7929926220        0.0520593916
 H          4.1400165899       -4.4092875521        0.5429206347
 C          5.1515363323       -2.8416357612        1.6176175688
 H          6.2346392953       -2.8231274048        1.4984730831
 H          4.9438051926       -3.5148607516        2.4520164181
 C          4.6545708012       -1.4514093629        2.0385755281
 H          3.7630909159       -1.5577469725        2.6647668405
 H          5.4173564669       -0.9740800879        2.6631991844
 H          4.8485824340       -1.9095355178       -2.1425596422
 H          6.5429899797       -2.3601494641       -2.3054741300
 H          6.6863118071       -0.2755921531       -1.2977920906
 H          6.7600409026       -1.3103516871        0.1373878157
 O          4.4867263875        0.6177639757       -1.1233109739
 C          3.3413088218        1.3822134981       -0.9525926835
 O          3.0978082046        2.1369246158       -1.9106331751
 O          2.3948263774        0.1362246066        2.3066926527
 C          1.3719716635        2.0278495816        0.5289129123
 C          0.1468552206        1.3266456367       -0.0000827675
 C          0.0635985258        0.9164501766       -1.3271695616
 C         -1.0730668075        0.2807417413       -1.7925457536
 C         -2.1424915239        0.0340852830       -0.9488614588
 C         -2.0690298517        0.4360858708        0.3776712041
 C         -0.9282987049        1.0808208300        0.8408089356
 H         -0.8698631552        1.3821928067        1.8781938140
 N         -3.1397375229        0.1700243714        1.2442412168
 S         -4.7033096032        0.5131504778        0.7425019495
 O         -4.7252532775        1.6055166905       -0.2018262098
 O         -5.4550228925        0.7025587582        1.9635334672
 C         -5.2422835922       -0.9904757653       -0.0435030625
 C         -5.1441194496       -2.1697763023        0.6686807162
 C         -5.5729330822       -3.3466018798        0.0761222399
 C         -6.0928000290       -3.3241704910       -1.2096395071
 C         -6.1873316761       -2.1316062851       -1.9102870222
 C         -5.7591470184       -0.9508063233       -1.3235526583
 H         -5.8090810633       -0.0013660040       -1.8326839454
 H         -6.5918168773       -2.1163181918       -2.9096401926
 H         -6.4262752264       -4.2416973966       -1.6681848173
 H         -5.5004671476       -4.2760749594        0.6176159078
 H         -4.7371880989       -2.1455380493        1.6658353393
 H         -2.9853273573        0.4677504588        2.1964123772
 H         -3.0282719978       -0.4629571867       -1.3091291701
 H         -1.1264632511       -0.0293421356       -2.8252509511
 H          0.8967844837        1.1068407323       -1.9870889378
 H          1.2977032318        2.0304237765        1.6283013303
 C          1.4659806641        3.4806448885        0.0843624709
 C          0.6758641090        4.0631443710       -1.0446563639
 C          0.3342138197        4.4243165368        0.3678651176
 H          0.5622531592        5.4180421101        0.7223974453
 H         -0.5715204724        4.0049565756        0.7812079476
 H          1.1645602955        4.7960010543       -1.6681142184
 H         -0.0030258484        3.4208534975       -1.5827622784
 H          2.4684607213        3.8755359723        0.2154455222
