  62
        -98.94651126
 C         -1.1829536901       -1.1420461301        0.5705246713
 C         -1.6547991947       -0.6103538895       -0.6546771968
 C         -2.4546421051        0.6174601296       -0.5438642198
 C         -2.5866628933        1.2276626927        0.6469056243
 C         -3.3475453106        2.4977767019        0.9140765042
 C         -4.8517931871        2.2855105017        1.1355148015
 C         -5.6506877687        1.9272999217       -0.1184563635
 H         -6.7076630950        2.0220353082        0.1383878086
 H         -5.4413045199        2.6556235987       -0.9024749136
 C         -5.3972792237        0.5086524317       -0.6479915998
 H         -4.9211603532       -0.0912240349        0.1310299325
 H         -6.3519615892        0.0309158261       -0.8793945678
 C         -4.5411134777        0.4471266305       -1.9132626600
 H         -5.0727632697        0.9264684221       -2.7382344628
 H         -4.3918705335       -0.6034889200       -2.1746291635
 C         -3.1616034377        1.1043884584       -1.7726493652
 H         -2.5567555781        0.8231522940       -2.6376347052
 H         -3.2698204429        2.1884461645       -1.7529431582
 H         -4.9878655517        1.5059567732        1.8887442225
 H         -5.2555833012        3.2149156562        1.5438216193
 H         -2.9255623966        2.9285622782        1.8245112623
 H         -3.1976731860        3.2002139719        0.0939745251
 O         -2.0012122641        0.7533444764        1.7790428353
 C         -1.3228732692       -0.4522618110        1.7755792888
 O         -0.8807969679       -0.7941024928        2.8932204206
 H          1.4646862836       -0.9874639558        1.6988133377
 C          1.8055821597       -1.4023745057        0.7583249825
 C          0.9512459840       -2.2334218752        0.0422864914
 C          1.3915479507       -2.7553581432       -1.1656299704
 C          2.6547460926       -2.4446103592       -1.6425926615
 C          3.5013725359       -1.6159872252       -0.9288254944
 C          3.0684978767       -1.0927788711        0.2831561959
 N          3.9159919001       -0.2245627394        1.0112584905
 S          4.2062208265        1.2470784758        0.2633758179
 O          5.0574191370        1.0272999384       -0.8774478019
 O          4.7284841300        2.1150311325        1.2939848834
 C          2.6016313770        1.8126584526       -0.2716976688
 C          1.8245150212        2.5314938711        0.6143141451
 C          0.5604506586        2.9374915082        0.2199208983
 C          0.0944820223        2.6077588450       -1.0432065637
 C          0.8794361011        1.8697331769       -1.9146141632
 C          2.1470633499        1.4666867687       -1.5282551984
 H          2.7907967604        0.9004839420       -2.1810916432
 H          0.5045017714        1.6016283446       -2.8890495803
 H         -0.8870344661        2.9274565374       -1.3525016465
 H         -0.0581031104        3.5041058921        0.8976553813
 H          2.2263812149        2.7746221944        1.5853047286
 H          3.5777110452       -0.0517069086        1.9482932618
 H          4.4803620083       -1.3512789571       -1.2944094560
 H          2.9835802652       -2.8533265601       -2.5859287457
 H          0.7417603603       -3.3932957499       -1.7410409037
 C         -0.4264403841       -2.4615705254        0.6138016818
 H         -0.3072028996       -2.7036861124        1.6793818493
 C         -1.1991869757       -3.5770332603       -0.0544888472
 C         -0.8495397076       -5.0009448756        0.2534488326
 C         -2.1286670518       -4.4147353746        0.7690732104
 H         -3.0597690637       -4.7371705518        0.3276600892
 H         -2.2011367238       -4.1932278599        1.8242667079
 H         -0.0520162170       -5.1775645031        0.9594636088
 H         -0.9027422624       -5.7296097171       -0.5409042599
 H         -1.5119638561       -3.3353775914       -1.0623286267
 O         -1.4373748169       -1.1265107333       -1.7793764042
