  62
        -98.94878129
 C          0.9423146246        1.2800651225        0.0489610472
 C          1.9117267369        1.0286205566        1.0466204769
 C          2.6401512800       -0.2409333319        0.9290057542
 C          2.3268647939       -1.0871092388       -0.0692083902
 C          3.0205248688       -2.3923601077       -0.3309587902
 C          4.1927757225       -2.2125787057       -1.3055064446
 C          5.1342588823       -1.0681579786       -0.9306658232
 H          5.9399489877       -1.0545056121       -1.6677249168
 H          4.5978822646       -0.1210025873       -1.0216909999
 C          5.7335687706       -1.1751167437        0.4785189942
 H          5.6381332586       -2.1974815047        0.8461324679
 H          6.8005026784       -0.9486298717        0.4241546662
 C          5.1270032078       -0.2119872326        1.5009266648
 H          5.7608525751       -0.2176961467        2.3917816494
 H          5.1379638790        0.8041654264        1.0985213002
 C          3.6973274579       -0.5325155964        1.9564064990
 H          3.4679572654        0.1098043815        2.8121718343
 H          3.6382939930       -1.5718402363        2.2874791148
 H          4.7534435222       -3.1481235478       -1.3478724329
 H          3.7883052288       -2.0110393043       -2.2998127176
 H          2.2990508195       -3.0857703981       -0.7655927853
 H          3.3764382280       -2.8030113435        0.6121139110
 O          1.3690243322       -0.8242967648       -0.9932500365
 C          0.6522254930        0.3625211781       -0.9611185369
 O         -0.1952006697        0.4782803252       -1.8650261437
 O          2.1565042567        1.8292478884        1.9914327180
 C          0.1534272987        2.5730891232        0.0956933231
 C         -1.3315372615        2.3087115258        0.1432160933
 C         -2.2606241569        3.1699482326       -0.4294853769
 C         -3.6147848979        2.8976983477       -0.3478808635
 C         -4.0714395416        1.7585530516        0.2891655061
 C         -3.1503579024        0.8930855572        0.8683482198
 C         -1.7969818748        1.1816032829        0.8069281511
 H         -1.0974789856        0.5046962837        1.2751459049
 N         -3.5717446068       -0.2764789520        1.5221929193
 S         -2.6796805580       -1.6785627132        1.4049266379
 O         -3.6077389179       -2.7176929530        1.8060572586
 O         -1.4797495453       -1.5847654772        2.2009927526
 C         -2.2590934849       -1.9231773498       -0.3116036855
 C         -1.1059549330       -2.6262105615       -0.5916368684
 C         -0.7870378543       -2.8988893265       -1.9111903975
 C         -1.6207172679       -2.4600208562       -2.9259705594
 C         -2.7761162299       -1.7564787511       -2.6294205476
 C         -3.1062952779       -1.4904761239       -1.3109397658
 H         -4.0007991842       -0.9424686692       -1.0644230626
 H         -3.4188110076       -1.4072474424       -3.4214115970
 H         -1.3627225088       -2.6607091614       -3.9538504000
 H          0.1164154125       -3.4397080517       -2.1442826504
 H         -0.4734502309       -2.9293730387        0.2288277045
 H         -4.5630402433       -0.4626003128        1.4776173161
 H         -5.1270282668        1.5393365809        0.3421904599
 H         -4.3242044612        3.5760968706       -0.7964592350
 H         -1.9221695951        4.0555292171       -0.9419668228
 H          0.4445600530        3.0616976078        1.0385994713
 C          0.5553742218        3.4695557140       -1.0600715518
 C          0.6091766697        4.9580321378       -0.8924434460
 C          1.8787743761        4.1701104211       -1.0014286857
 H          2.4629072491        4.2486960109       -1.9060480027
 H          2.4722508094        4.0283645867       -0.1097113359
 H          0.3233655224        5.5816477100       -1.7261696468
 H          0.3503631125        5.3638259540        0.0739960507
 H          0.2421764083        3.0709907326       -2.0186247234
