  62
        -98.94414012
 C         -0.7977500744       -1.1963521537        0.2942535583
 C         -1.5051814369       -0.3630126949        1.1969305238
 C         -2.4106781165        0.6235153021        0.5939332180
 C         -2.4492888819        0.7449053430       -0.7449442319
 C         -3.3930794185        1.6351863841       -1.4988725968
 C         -4.6906320562        0.8899461185       -1.8453457860
 C         -5.3235554427        0.1618515506       -0.6592820226
 H         -6.2467566082       -0.2999150735       -1.0161431473
 H         -4.6626543121       -0.6487151821       -0.3432909798
 C         -5.6345546715        1.0602134055        0.5461668977
 H         -5.6439143585        2.1057923338        0.2365369679
 H         -6.6357057210        0.8217957213        0.9114733541
 C         -4.6778225334        0.8906608781        1.7280866579
 H         -4.5994562469       -0.1684099990        1.9876321215
 H         -5.1081419469        1.4061067001        2.5909323055
 C         -3.2616208062        1.4435474808        1.5217745514
 H         -3.3207930044        2.4784981519        1.1801018647
 H         -2.7530822015        1.4256838970        2.4902595559
 H         -5.4032884897        1.6086701088       -2.2538672207
 H         -4.4702919848        0.1520124238       -2.6201033408
 H         -3.6199074714        2.5130042949       -0.8975201187
 H         -2.9089275614        1.9466383521       -2.4252741229
 O         -1.6619898846        0.0158200398       -1.5732206714
 C         -0.8333144644       -0.9862549085       -1.0853516012
 O         -0.1994429878       -1.5879550704       -1.9710183932
 H          1.6913986567       -0.2163587264        0.6881643724
 C          2.1331433988       -1.0795234292        0.2117753101
 C          1.4344527244       -2.2805790728        0.2154914227
 C          2.0140102560       -3.3886088254       -0.3869314842
 C          3.2587234059       -3.2851909176       -0.9838362978
 C          3.9447725950       -2.0856798898       -0.9961741156
 C          3.3702190290       -0.9680529439       -0.3987098666
 N          4.0107951539        0.2739284077       -0.4445384424
 S          3.6380235330        1.5236314869        0.5821350735
 O          4.6635691453        2.5116243911        0.3207739681
 O          3.5326811846        1.0832114886        1.9543423750
 C          2.0730636105        2.1508214459        0.0101562158
 C          1.1414976880        2.5675312044        0.9400565356
 C         -0.0506473550        3.1161606191        0.4975204068
 C         -0.2901746464        3.2367303533       -0.8620817581
 C          0.6497895157        2.8028714686       -1.7835887440
 C          1.8464751571        2.2580886473       -1.3470544806
 H          2.5976036206        1.9124642151       -2.0379126995
 H          0.4541298347        2.8865301030       -2.8405774362
 H         -1.2152890324        3.6715430434       -1.2047947683
 H         -0.7856420542        3.4427275920        1.2154628705
 H          1.3609099522        2.4440477666        1.9891914742
 H          4.9512780702        0.2924460201       -0.8056046590
 H          4.9093677460       -2.0056985085       -1.4733338012
 H          3.6986006212       -4.1522733735       -1.4530150264
 H          1.4854883227       -4.3271664824       -0.4114234022
 C          0.0809071834       -2.2869713949        0.8796280124
 H          0.2254445600       -1.9875337536        1.9322498753
 C         -0.5752601505       -3.6600615912        0.9048425601
 C         -2.0669235548       -3.8053883403        0.9225940134
 C         -1.2883138731       -4.2228315169       -0.2867983908
 H         -1.1904384928       -5.2788046721       -0.4920280934
 H         -1.3391025449       -3.6082175158       -1.1717213828
 H         -2.4998931538       -4.5708745145        1.5490966627
 H         -2.6588731378       -2.9034128557        0.8644455056
 H         -0.0211849318       -4.3636499860        1.5187066812
 O         -1.3938434723       -0.4497996990        2.4497572223
