  62
        -98.93677994
 C         -2.4187208694       -1.2249312006        0.1267269521
 C         -2.3526632390        0.0455429852       -0.4962996348
 C         -3.6450252040        0.6365782769       -0.8823451778
 C         -4.7841407097       -0.0323815539       -0.6306359497
 C         -6.1649295302        0.4767920486       -0.9245452995
 C         -6.7434288862        1.2365785895        0.2774456644
 C         -5.7950133882        2.2842090483        0.8604475865
 H         -6.3199046409        2.7768082076        1.6817636023
 H         -4.9266122241        1.7798024131        1.2904743955
 C         -5.3179088099        3.3393174652       -0.1472477057
 H         -5.3823577678        4.3241564492        0.3200364158
 H         -5.9785091495        3.3485040061       -1.0149325198
 C         -3.8717207704        3.1631676463       -0.6146010427
 H         -3.2141608577        3.0592640477        0.2524251637
 H         -3.5721383601        4.0714403863       -1.1444148842
 C         -3.6136842485        1.9797552639       -1.5559117282
 H         -4.3192648656        2.0103078372       -2.3888707111
 H         -2.6019181803        2.0900110617       -1.9579043696
 H         -7.6728430480        1.7171169737       -0.0331575642
 H         -6.9793886267        0.5141687535        1.0621559143
 H         -6.1287136903        1.1268858492       -1.7964542395
 H         -6.8061770381       -0.3780783842       -1.1456574184
 O         -4.8084602949       -1.2449988007       -0.0207254482
 C         -3.6363645758       -1.8593845923        0.3875122856
 O         -3.8067734509       -2.9490525798        0.9691412131
 O         -1.2818413581        0.6675422424       -0.7223878919
 C         -1.1690972607       -1.9537472905        0.5895743895
 C         -0.2200611371       -0.9927085310        1.2635974444
 C         -0.6692653358       -0.2836784653        2.3749843977
 C          0.1569851656        0.6160312358        3.0186764922
 C          1.4517477978        0.8194765891        2.5756216191
 C          1.9167181569        0.1039769037        1.4781573999
 C          1.0819298015       -0.7965854615        0.8313829006
 H          1.4556139336       -1.3152014187       -0.0343508674
 N          3.2499437798        0.2582585432        1.0594886535
 S          3.7326039471       -0.0037299604       -0.5322540235
 O          3.0666005513        0.9066888152       -1.4365248904
 O          3.6213103482       -1.4086152612       -0.8339139795
 C          5.4555650275        0.4347464086       -0.3827785669
 C          5.8940001974        1.6629586270       -0.8392958452
 C          7.2326493191        1.9933920176       -0.6956144436
 C          8.1048506755        1.0958819126       -0.0986592941
 C          7.6503247155       -0.1338398425        0.3545543699
 C          6.3137639705       -0.4704926246        0.2126182491
 H          5.9171174246       -1.4168583517        0.5411227533
 H          8.3319527901       -0.8298522345        0.8162977342
 H          9.1459746981        1.3551829778        0.0114517988
 H          7.5893552367        2.9470772238       -1.0499707182
 H          5.1809750826        2.3251078506       -1.3039223470
 H          3.6738009238        1.1015591233        1.4218323526
 H          2.0964311805        1.5270313614        3.0746585554
 H         -0.2099964945        1.1688918080        3.8706814155
 H         -1.6848911641       -0.4373759218        2.7158590348
 H         -1.5217340971       -2.6665839670        1.3544416754
 C         -0.5021742140       -2.7825211753       -0.4984804371
 C         -1.2835844431       -3.3403896331       -1.6491985778
 C         -0.2814837446       -2.2516494473       -1.8818051255
 H          0.6462795022       -2.4947276810       -2.3803559762
 H         -0.6369125462       -1.2559035378       -2.0964815524
 H         -1.0500249587       -4.3379184160       -1.9896586470
 H         -2.3330977238       -3.0914520697       -1.7117048906
 H          0.2791466544       -3.4223652133       -0.0983635920
