  62
        -98.94018962
 C         -2.6015924297       -0.8932041006       -0.1675589198
 C         -2.1607695902        0.1196289397       -1.0563658698
 C         -2.7616058506        1.4478045195       -0.8564180095
 C         -3.7156226204        1.6277018391        0.0734349907
 C         -4.4492207708        2.9095564588        0.3618601509
 C         -3.7102949809        3.8498937289        1.3231816409
 C         -2.4825086712        4.5442095394        0.7330407608
 H         -2.7561555215        5.0306193294       -0.2037203591
 H         -2.1883114613        5.3275070094        1.4343239508
 C         -1.2825477010        3.6151509097        0.4997660405
 H         -1.4135121706        2.6932899096        1.0717612004
 H         -0.3720031710        4.0898432300        0.8718397304
 C         -1.0294475211        3.2517488400       -0.9636780096
 H         -0.1802053109        2.5631918003       -0.9989858898
 H         -0.7561806615        4.1504063401       -1.5222261196
 C         -2.2208033410        2.5865085497       -1.6668081795
 H         -3.0019301913        3.3219091595       -1.8619120993
 H         -1.8727390611        2.1815520699       -2.6204349296
 H         -3.4165761406        3.2824464389        2.2091958008
 H         -4.4202433511        4.6178481387        1.6387373011
 H         -5.3993683806        2.6257716485        0.8195079311
 H         -4.6547452911        3.4311479289       -0.5732185990
 O         -4.1551270800        0.6158266888        0.8682682506
 C         -3.5853655196       -0.6427480510        0.7942035104
 O         -4.0495909492       -1.4576850912        1.6182054104
 O         -1.3227019903       -0.0471855600       -1.9820481200
 C         -2.0490358093       -2.3086242904       -0.1546754701
 C         -0.7987722291       -2.4085261401        0.6886447997
 C         -0.6734849686       -3.4112671502        1.6433250595
 C          0.4819757515       -3.5274306699        2.3947168493
 C          1.5332586712       -2.6504106496        2.2040322292
 C          1.4136043408       -1.6345228295        1.2605040294
 C          0.2525284306       -1.5204739098        0.5094250796
 H          0.1803317902       -0.7355114897       -0.2272178403
 N          2.4499678204       -0.7055680592        1.0896102993
 S          2.6765123300        0.0423080311       -0.4068826307
 O          1.7951713796        1.1767574908       -0.4967489604
 O          2.6101529901       -0.9368718188       -1.4673736508
 C          4.3581727698        0.6057359915       -0.2110710309
 C          4.5918155496        1.8302132715        0.3851101292
 C          5.9005596895        2.2501348519        0.5636707290
 C          6.9484041996        1.4429722723        0.1464625988
 C          6.6989027499        0.2173420223       -0.4526888813
 C          5.3924050800       -0.2083659781       -0.6333577112
 H          5.1498557302       -1.1473118081       -1.1046623612
 H          7.5151718400       -0.4062769274       -0.7799016916
 H          7.9657996596        1.7726354626        0.2857741086
 H          6.0979577393        3.2039724119        1.0256270991
 H          3.7450139194        2.4259560012        0.6841845394
 H          3.3233909306       -1.0018795990        1.5024960791
 H          2.4372634014       -2.7408774594        2.7867534890
 H          0.5668434219       -4.3109501200        3.1322536192
 H         -1.4948301084       -4.0946982605        1.8004223596
 H         -2.8231765590       -2.9251582507        0.3240787500
 C         -1.7725761294       -2.8781684502       -1.5331884502
 C         -1.8261522889       -4.3619529401       -1.7324723504
 C         -2.8939270693       -3.4873957204       -2.3167573301
 H         -2.9156546796       -3.3346685803       -3.3851773201
 H         -3.8718804192       -3.5006116608       -1.8573322399
 H         -1.1093561889       -4.8149807499       -2.4000279506
 H         -2.0848803386       -4.9743145503       -0.8819834404
 H         -1.0229980096       -2.3224072399       -2.0821210703
