  62
        -98.94017625
 C         -2.4507245510       -0.9590438629        0.0305717695
 C         -2.5834864897        0.4348987073        0.2381878136
 C         -3.9334362983        0.9025992759        0.5858817184
 C         -4.9325535156        0.0086151103        0.7008714684
 C         -6.3638578315        0.3547882583        0.9905489529
 C         -7.1544703418        0.5762260881       -0.3066535374
 C         -6.4677968284        1.5181458686       -1.2956864295
 H         -5.5466940131        1.0512831236       -1.6522148647
 H         -7.1294107381        1.6225102033       -2.1583538333
 C         -6.1436971771        2.9073647836       -0.7287199440
 H         -6.4311132879        3.6616944780       -1.4641617886
 H         -6.7352557342        3.0884076395        0.1693348546
 C         -4.6638584226        3.1338901858       -0.4138623455
 H         -4.0582445949        2.8653574596       -1.2832650360
 H         -4.5144898175        4.2010123658       -0.2288924229
 C         -4.1179248699        2.3780017490        0.8041224018
 H         -3.1211456993        2.7731827144        1.0214863533
 H         -4.7576260283        2.5630178832        1.6693906788
 H         -7.2942758584       -0.3904310048       -0.7959035336
 H         -8.1382118311        0.9719137514       -0.0478044541
 H         -6.8128985791       -0.4725388219        1.5424583912
 H         -6.3975280911        1.2511982957        1.6065490633
 O         -4.7591479671       -1.3257126215        0.5173259751
 C         -3.5209316165       -1.8416872829        0.1730289658
 O         -3.4999133718       -3.0814527604        0.0322558938
 O         -1.6276602417        1.2481163808        0.1395263878
 C         -1.1021719868       -1.5395238865       -0.3542381866
 C         -0.0629585465       -1.1705334437        0.6763729043
 C         -0.3270763246       -1.4336940339        2.0186044763
 C          0.5981116994       -1.1203336055        2.9947327187
 C          1.8115356400       -0.5484376294        2.6539096517
 C          2.0841737170       -0.2800101957        1.3182438484
 C          1.1512176877       -0.5954664497        0.3394659024
 H          1.3916109566       -0.3781288126       -0.6873350845
 N          3.2925844566        0.3301446158        0.9457754048
 S          3.9951929373       -0.0750735196       -0.5331644793
 O          3.3588278107        0.6781217932       -1.5839519650
 O          4.0134001436       -1.5116168361       -0.6970592678
 C          5.6495214765        0.5396176657       -0.2746044715
 C          6.6527428279       -0.3360067657        0.0953096901
 C          7.9271441973        0.1609581374        0.3197561738
 C          8.1745492174        1.5176516797        0.1743992904
 C          7.1575135832        2.3842699621       -0.1981554392
 C          5.8816285801        1.8938861285       -0.4257296205
 H          5.0626196437        2.5268530238       -0.7254988263
 H          7.3541651911        3.4380364203       -0.3129316623
 H          9.1668735553        1.9020853625        0.3497049364
 H          8.7207147077       -0.5103507231        0.6058264859
 H          6.4155099291       -1.3836381672        0.1881499320
 H          3.9737957373        0.3440321570        1.6922937282
 H          2.5353166774       -0.3032454467        3.4163006203
 H          0.3768393675       -1.3286557187        4.0308845043
 H         -1.2740205906       -1.8854505597        2.2836645092
 H         -1.2232584235       -2.6331168160       -0.3370948494
 C         -0.7335271258       -1.1154638132       -1.7604345079
 C          0.1909642401       -1.9601397495       -2.5828880389
 C         -1.2667609026       -1.8933620106       -2.9240608509
 H         -1.5650357365       -1.3554214720       -3.8114034975
 H         -1.8837933958       -2.7526218772       -2.7041468344
 H          0.9006262451       -1.4655550255       -3.2297098256
 H          0.5703599788       -2.8664971417       -2.1348900472
 H         -0.6660645312       -0.0381480414       -1.8674815433
