  62
        -98.93380297
 C         -1.6403792591       -0.2138897706        0.3533666202
 C         -2.7828892891       -1.0041157903        0.0801876895
 C         -3.9607305891       -0.2842190997       -0.4356291598
 C         -3.8867196690        1.0406647205       -0.6516753486
 C         -5.0201399589        1.9186450610       -1.1003132677
 C         -5.9629532589        2.2075272800        0.0854728426
 C         -7.3654304789        1.6175046902       -0.0644281079
 H         -7.8585602689        1.6963178394        0.9068617622
 H         -7.9328914189        2.2258939410       -0.7718565373
 C         -7.4314734391        0.1629790907       -0.5402234692
 H         -8.4456600691       -0.1903869694       -0.3418146895
 H         -7.2952285991        0.1239408017       -1.6220209493
 C         -6.4365262191       -0.8038114200        0.1146882398
 H         -6.9464241492       -1.7553734301        0.2788417689
 H         -6.1299526490       -0.4355983509        1.0939695301
 C         -5.1853429092       -1.1058593493       -0.7312185505
 H         -4.8802734093       -2.1398879495       -0.5456340715
 H         -5.4331755792       -1.0229690083       -1.7930147004
 H         -6.0592096488        3.2860252699        0.2194950236
 H         -5.4988237689        1.8186632091        0.9942426122
 H         -5.5613113390        1.4362436318       -1.9112074681
 H         -4.5843570989        2.8455736913       -1.4734909568
 O         -2.7630054189        1.7625849602       -0.4062323879
 C         -1.6257701190        1.1623051696        0.1024367215
 O         -0.6763537189        1.9484766094        0.2918798821
 O         -2.8444253992       -2.2515545204        0.2483305283
 C         -0.3453671591       -0.7733192613        0.9196625896
 C          0.5209521008       -1.3956158203       -0.1494104910
 C          0.0841328607       -2.4774884496       -0.9063254920
 C          0.9136611706       -3.0436135588       -1.8565066726
 C          2.1967049606       -2.5627985687       -2.0513444222
 C          2.6434712308       -1.4840740194       -1.2979968912
 C          1.7978959909       -0.8991138202       -0.3661077906
 H          2.1434890810       -0.0488082608        0.2018201402
 N          3.9355463108       -0.9687178294       -1.4719647608
 S          4.8185874409       -0.4535272707       -0.1461598203
 O          6.1985538409       -0.5583115304       -0.5701690305
 O          4.4616341409       -1.1843197818        1.0468304990
 C          4.4022354011        1.2675402592        0.0290173413
 C          4.5830556211        2.0979919102       -1.0591055079
 C          4.2822503312        3.4440032901       -0.9302380167
 C          3.8108920213        3.9347332190        0.2780898038
 C          3.6391171313        3.0890785680        1.3626150630
 C          3.9379955611        1.7415764781        1.2393735718
 H          3.8151273611        1.0487848573        2.0574936311
 H          3.2698597013        3.4717968571        2.3006482934
 H          3.5746160114        4.9825061089        0.3764926248
 H          4.4139710812        4.1065939009       -1.7705041960
 H          4.9559620110        1.6807638810       -1.9796339883
 H          4.5094395907       -1.4720498088       -2.1326847513
 H          2.8485118506       -3.0177190881       -2.7818957227
 H          0.5629487605       -3.8796074882       -2.4429101934
 H         -0.9096628993       -2.8650631197       -0.7441978324
 H          0.2000461910        0.0938966683        1.3164093204
 C         -0.5535678691       -1.7616100823        2.0527107187
 C          0.6152437709       -2.1091838332        2.9233110283
 C         -0.5062870690       -1.2778818036        3.4690109291
 H         -1.1756017590       -1.7246899243        4.1889584887
 H         -0.3282557889       -0.2248600938        3.6330337601
 H          0.7139849008       -3.1274458436        3.2676133573
 H          1.5602975809       -1.6296167931        2.7120154087
 H         -1.2559158492       -2.5489091720        1.8138522780
