  62
        -98.94526550
 C          2.3719528430        0.0952452040       -0.6191457089
 C          2.1898027527        0.6481091237        0.6712736910
 C          1.8087577930        2.0666346665        0.7127821139
 C          1.6594497078        2.7439611980       -0.4398067138
 C          1.2936699036        4.1965464559       -0.5450820370
 C         -0.2204695055        4.4014445751       -0.6776470809
 C         -1.0429614825        3.6405494929        0.3621374493
 H         -2.0913028317        3.9066639821        0.2060057125
 H         -0.9571759503        2.5672839601        0.1804643738
 C         -0.6569848670        3.9304875563        1.8190943814
 H         -0.0993898532        4.8665654038        1.8804555424
 H         -1.5721303110        4.0566340155        2.4017663203
 C          0.1438778474        2.8133488340        2.4922748563
 H         -0.3497996265        1.8545712836        2.3083847331
 H          0.1316065176        2.9872357181        3.5722824684
 C          1.6126915111        2.6922547216        2.0644304624
 H          2.0924543886        3.6729052555        2.1125707108
 H          2.1137429363        2.0288371264        2.7758565639
 H         -0.4295452554        5.4703587101       -0.5983850285
 H         -0.5309017028        4.0657613495       -1.6696080108
 H          1.6641673829        4.7181710098        0.3354664773
 H          1.7839434109        4.6055080392       -1.4307742662
 O          1.8190764385        2.1718698731       -1.6609468169
 C          2.1531959723        0.8332781473       -1.7802504867
 O          2.2324532457        0.4253924506       -2.9586287974
 H          0.1339181064       -1.1432621862       -0.7857925707
 C          0.4437606631       -1.9528732125       -0.1423189481
 C          1.7983036416       -2.2365497956       -0.0183068471
 C          2.1849285910       -3.2982942033        0.7881867464
 C          1.2363225606       -4.0241319197        1.4880336140
 C         -0.1027178231       -3.6888868154        1.4200856615
 C         -0.5017385191       -2.6376521641        0.6011262363
 N         -1.8608168741       -2.2748703038        0.5035562858
 S         -2.3456499234       -0.6773812169        0.7580107820
 O         -1.3320611560        0.2469011673        0.3285131070
 O         -2.8005529042       -0.5555644504        2.1293874248
 C         -3.7486592951       -0.5932012250       -0.3354436341
 C         -5.0276060823       -0.7288271390        0.1673015993
 C         -6.1001894211       -0.6919392209       -0.7100442221
 C         -5.8756135382       -0.5234389438       -2.0677240813
 C         -4.5849513925       -0.3877844012       -2.5576464107
 C         -3.5093008644       -0.4239032623       -1.6849625878
 H         -2.4901099274       -0.3155595304       -2.0216610885
 H         -4.4117536679       -0.2544295034       -3.6135651331
 H         -6.7104797597       -0.4949208609       -2.7499791188
 H         -7.1048848926       -0.7941337414       -0.3327404154
 H         -5.1545976951       -0.8482855220        1.2309471961
 H         -2.4515696599       -2.8682680717        1.0721681712
 H         -0.8370965340       -4.2312073281        1.9972458254
 H          1.5476396557       -4.8461604255        2.1149349401
 H          3.2287881038       -3.5499962100        0.8812350371
 C          2.7718374566       -1.3624172821       -0.7701244431
 H          2.6929830057       -1.5924434204       -1.8430363567
 C          4.2105473163       -1.5513520891       -0.3340518845
 C          5.0625912658       -2.6102296783       -0.9653274710
 C          5.3075222056       -1.1656160056       -1.2787738141
 H          6.1901416634       -0.6904259069       -0.8777973144
 H          5.0133843594       -0.7920690190       -2.2489747526
 H          5.7829893387       -3.1274983272       -0.3496737443
 H          4.6122798610       -3.2238647262       -1.7307630831
 H          4.3558337275       -1.3324659405        0.7179693847
 O          2.3607827770       -0.0041706074        1.7358451976
