  62
        -98.94717580
 C         -1.5987618450       -1.5691972304       -0.2416711259
 C         -2.7544501055       -1.2272278359        0.5073226429
 C         -3.5459726965       -0.1038922443       -0.0040315435
 C         -3.1640589196        0.5223474435       -1.1316758027
 C         -3.8825830172        1.6650110333       -1.7973906820
 C         -3.5452333157        3.0476737491       -1.2224943028
 C         -4.1112632541        3.3313734991        0.1692106598
 H         -3.9735794799        4.3976960311        0.3593898998
 H         -5.1846155826        3.1390020672        0.1691942843
 C         -3.4437580921        2.5354833662        1.2998158565
 H         -3.2186990220        3.2043380733        2.1333780341
 H         -2.4928946002        2.1266602989        0.9503274257
 C         -4.2954661398        1.3936542999        1.8547250935
 H         -3.7164857728        0.8770821882        2.6243895956
 H         -5.1938582675        1.7995569921        2.3250641358
 C         -4.7196622697        0.3569109359        0.8057965410
 H         -5.1279376589       -0.5125036451        1.3267630743
 H         -5.4923225594        0.7703696561        0.1578789441
 H         -3.9474703196        3.7922751657       -1.9134380547
 H         -2.4599610750        3.1655183522       -1.2043498822
 H         -3.5862449780        1.6486792201       -2.8487079948
 H         -4.9589739806        1.5001239160       -1.7397505149
 O         -2.0582956791        0.1547091258       -1.8303871378
 C         -1.2353741379       -0.8765766250       -1.3962742575
 O         -0.2444078467       -1.0648761659       -2.1280742191
 H          1.6553359905       -2.2027019096       -0.9833303895
 C          1.6500930349       -1.8378149912        0.0312591541
 C          0.5364181768       -2.0401772488        0.8319311432
 C          0.5459363433       -1.5317275640        2.1279092826
 C          1.6429078674       -0.8410029284        2.6089144497
 C          2.7433355417       -0.6195506351        1.7989102936
 C          2.7350676414       -1.1109274080        0.5004383157
 N          3.8198697783       -0.8264453021       -0.3513633298
 S          4.2802987719        0.7836188555       -0.4170247549
 O          4.7884781599        0.9892559913       -1.7555118311
 O          5.2145048192        1.0534347387        0.6488390422
 C          2.7922755893        1.7371150357       -0.1539269541
 C          2.7577358544        2.6706255511        0.8626028054
 C          1.5986399728        3.4014800168        1.0659300229
 C          0.4955579171        3.1865910761        0.2541483676
 C          0.5476166441        2.2475495417       -0.7638306694
 C          1.7042098677        1.5145117695       -0.9737957648
 H          1.7462538250        0.7718577373       -1.7550892620
 H         -0.3066340729        2.0632785090       -1.3969677653
 H         -0.4091787932        3.7521146130        0.4166920006
 H          1.5559534391        4.1322513486        1.8573147521
 H          3.6355805836        2.8008818351        1.4744498110
 H          3.6967781388       -1.1939595522       -1.2843541891
 H          3.6009600757       -0.0661515413        2.1461657211
 H          1.6383531040       -0.4599495604        3.6185896859
 H         -0.3276651789       -1.6712393695        2.7487987297
 C         -0.7159539852       -2.6858562055        0.2940736208
 H         -1.2712221290       -3.1159450632        1.1379050871
 C         -0.4595332526       -3.7746923945       -0.7255938251
 C          0.1219454285       -5.0782644468       -0.2686580964
 C         -1.3087026612       -5.0088558787       -0.7085509264
 H         -1.5817704483       -5.4586159545       -1.6514545426
 H         -2.0791426524       -5.0761707438        0.0454593672
 H          0.8335349504       -5.5789424473       -0.9073130987
 H          0.3235792574       -5.1901761779        0.7859458185
 H         -0.1593182531       -3.3998221708       -1.6961215603
 O         -3.1076925482       -1.8361246904        1.5510606621
