  62
        -98.93885341
 C          1.9106492376        0.2821146657        0.0373671781
 C          2.9479373875        1.1357780877        0.4786540206
 C          4.2607489421        0.5090644567        0.7094320253
 C          4.3933074547       -0.8147677241        0.5163538672
 C          5.6464601535       -1.6362586240        0.6426309561
 C          6.3467199114       -1.7694071253       -0.7204114316
 C          7.3205053377       -0.6407150446       -1.0569459562
 H          8.2052940266       -0.7299307507       -0.4231069623
 H          7.6422482086       -0.7870705299       -2.0906519907
 C          6.7565716521        0.7753796148       -0.9134086960
 H          5.7469761485        0.8127748146       -1.3267079956
 H          7.3761850649        1.4443058704       -1.5138932407
 C          6.7469290908        1.2772416064        0.5382344099
 H          7.2246361958        2.2580847591        0.5840952347
 H          7.3538166631        0.6094299060        1.1493569839
 C          5.3553395259        1.4330900543        1.1696251791
 H          5.4464988976        1.3512613849        2.2578566705
 H          4.9730576793        2.4377908589        0.9638420358
 H          6.9000461300       -2.7105520540       -0.7400616474
 H          5.5724509719       -1.8303560561       -1.4897099574
 H          6.3129493461       -1.2124104549        1.3878171630
 H          5.3350342047       -2.6296844188        0.9721088983
 O          3.3616946690       -1.6048853721        0.1093891100
 C          2.1032541000       -1.0865711993       -0.1472075175
 O          1.2679341279       -1.9303909236       -0.5229371686
 O          2.7859183923        2.3715655248        0.6689387833
 C          0.5402682949        0.8781641662       -0.2362381589
 C         -0.4760259549        0.2274765843        0.6678811217
 C         -0.3236899995        0.3733214704        2.0455387055
 C         -1.2001419951       -0.2346919322        2.9217347714
 C         -2.2543145887       -0.9940824919        2.4431565480
 C         -2.4170038812       -1.1453280152        1.0719052319
 C         -1.5341913385       -0.5295593342        0.1928696769
 H         -1.6728876115       -0.6830911133       -0.8633873123
 N         -3.4636206815       -1.9318016830        0.5653623636
 S         -4.3915498740       -1.4183150845       -0.7245532966
 O         -5.5267317469       -2.3143663918       -0.7299620614
 O         -3.6064222774       -1.3744580100       -1.9308061797
 C         -4.9213074218        0.2213417769       -0.2645991670
 C         -6.0431075027        0.3483291129        0.5318020944
 C         -6.4314261168        1.6111593990        0.9479934386
 C         -5.6888005548        2.7199368684        0.5707025340
 C         -4.5649186928        2.5753480326       -0.2277741759
 C         -4.1735352461        1.3148953026       -0.6515767464
 H         -3.3086060164        1.1656909539       -1.2761980811
 H         -3.9894734699        3.4383403988       -0.5226484006
 H         -5.9886948987        3.7030613042        0.8976139086
 H         -7.3079461466        1.7271489435        1.5648790764
 H         -6.5966888946       -0.5389247958        0.7933011360
 H         -4.0435139464       -2.3591254441        1.2725386814
 H         -2.9361368814       -1.4782365708        3.1257399349
 H         -1.0653655699       -0.1171030960        3.9863625008
 H          0.5037144586        0.9624033193        2.4170744487
 H          0.6249805065        1.9376012888        0.0461227737
 C          0.2058458292        0.7943892056       -1.7097080350
 C         -0.7360539338        1.7867131325       -2.3209338673
 C          0.7283611508        1.8521438575       -2.6332779075
 H          1.0622909144        1.5579191955       -3.6170342798
 H          1.3097380804        2.6501976615       -2.1949766663
 H         -1.4119414907        1.4472011140       -3.0921211004
 H         -1.1435085439        2.5491378861       -1.6739843207
 H          0.1881818877       -0.2233898462       -2.0837882491
