  62
        -98.94395701
 C          1.9742036057        1.2264063554       -0.1817774121
 C          2.3363130172        0.0336324895       -0.8533710633
 C          3.7716568976       -0.2893296144       -0.8529759107
 C          4.6372915689        0.5417818585       -0.2451043376
 C          6.1134583763        0.3020116119       -0.1203023945
 C          6.4446803308       -0.4554606366        1.1733332859
 C          5.5827122538       -1.6974046081        1.4009301880
 H          5.9248909509       -2.1656194302        2.3263916679
 H          4.5466848405       -1.3895221078        1.5606089178
 C          5.6341077481       -2.7233729109        0.2602478086
 H          5.7445554498       -3.7209168027        0.6906326571
 H          6.5100001532       -2.5410069513       -0.3634526566
 C          4.3838203991       -2.7551529686       -0.6208508240
 H          3.4933249069       -2.8462506070        0.0067180267
 H          4.4327062583       -3.6485097986       -1.2494306498
 C          4.1938432700       -1.5509871061       -1.5517545350
 H          5.1045562753       -1.3857706922       -2.1312155319
 H          3.3836364715       -1.7935237892       -2.2460104992
 H          7.4976118403       -0.7415738873        1.1456011955
 H          6.2982444776        0.2217210652        2.0178834045
 H          6.4584017154       -0.2635541345       -0.9836487626
 H          6.6192295212        1.2688509023       -0.1046817995
 O          4.2523771258        1.6849274818        0.3775026145
 C          2.9176235648        2.0480352671        0.4371498949
 O          2.7007172638        3.1078655689        1.0585343213
 H         -1.3688845458       -0.2054235315       -0.9405608909
 C         -1.1612770077       -0.2461154412        0.1146609189
 C         -0.2446638278        0.6180791483        0.6905669555
 C          0.0240836956        0.5002583121        2.0529974541
 C         -0.6051508226       -0.4630930877        2.8160930113
 C         -1.5212425002       -1.3249582180        2.2375928860
 C         -1.7942501166       -1.2193061512        0.8790752115
 N         -2.6931992660       -2.1081549772        0.2717628549
 S         -3.8097151027       -1.6182911110       -0.8674165067
 O         -4.6869125218       -2.7582529364       -1.0180710321
 O         -3.1525928173       -1.1534564065       -2.0610885379
 C         -4.6968143904       -0.2820358186       -0.0869368865
 C         -5.7907608005       -0.5890410814        0.6991297504
 C         -6.4601603326        0.4356813851        1.3477835369
 C         -6.0212590067        1.7436510539        1.2069325116
 C         -4.9201763869        2.0347763453        0.4166280414
 C         -4.2481852110        1.0144839496       -0.2382635890
 H         -3.3920458724        1.2060563055       -0.8633776512
 H         -4.5802627236        3.0520914671        0.3053299155
 H         -6.5414794373        2.5416161450        1.7128713575
 H         -7.3193929230        0.2126722863        1.9595752741
 H         -6.1046052070       -1.6178056422        0.7712822560
 H         -3.0982824582       -2.7875255938        0.8986377212
 H         -2.0092001884       -2.0842491089        2.8297249879
 H         -0.3843670835       -0.5446551071        3.8697072183
 H          0.7459958043        1.1711530080        2.4990653966
 C          0.5175637543        1.6552990464       -0.0971251631
 H          0.5153626120        2.5904044043        0.4803438254
 C         -0.0446417288        1.9371505521       -1.4735985703
 C         -1.2132262430        2.8628151611       -1.6225869852
 C          0.1506178143        3.2997323827       -2.0648522125
 H          0.3511826798        3.3787123025       -3.1228168827
 H          0.6742742574        4.0305940725       -1.4656037310
 H         -1.6157969047        3.3054749536       -0.7237899584
 H         -1.9498205343        2.6444217413       -2.3817776271
 H          0.0251023378        1.0914677386       -2.1474735111
 O          1.5134597107       -0.7263428297       -1.4275205868
