  62
        -98.93715318
 C         -0.8328008674       -1.6542752895        0.6264857776
 C         -1.4873912459       -1.2340918553       -0.5568920390
 C         -2.4370450220       -0.1038820035       -0.4228892553
 C         -2.6910749977        0.3994481619        0.7979628816
 C         -3.6447839370        1.5022189259        1.1724837073
 C         -5.1157362547        1.0549712599        1.1331422384
 C         -5.4991807500        0.1974711461       -0.0702228750
 H         -4.8572793866       -0.6848281786       -0.1023758118
 H         -6.5235129963       -0.1520614639        0.0835325531
 C         -5.4474391867        0.9087551252       -1.4201891280
 H         -5.8092307707        0.2044904264       -2.1737429652
 H         -6.1328533851        1.7592136987       -1.4043013052
 C         -4.0692511147        1.4073233757       -1.8598040877
 H         -3.7918387277        2.3138334287       -1.3280708706
 H         -4.1412751800        1.6810502881       -2.9167847597
 C         -2.9513752736        0.3740896943       -1.7582453335
 H         -3.2431613464       -0.5264166653       -2.3109973967
 H         -2.0673278247        0.7625953321       -2.2829874443
 H         -5.3128714890        0.4678623112        2.0332971520
 H         -5.7476064198        1.9440079074        1.1647427766
 H         -3.3999884768        1.7964548177        2.1954180217
 H         -3.4816736517        2.3652725078        0.5331985580
 O         -2.1006382947       -0.0979043933        1.9233622433
 C         -1.1368424215       -1.0856093343        1.8646546487
 O         -0.6367608118       -1.3787787485        2.9692559670
 H          0.9477916509       -0.7658225779       -1.1590469259
 C          1.7728689411       -1.0334936537       -0.5179639090
 C          1.6147303865       -2.0119724327        0.4539118830
 C          2.7059873285       -2.3436561491        1.2489016321
 C          3.9255851070       -1.7156306115        1.0688971779
 C          4.0734215189       -0.7284915170        0.1112393439
 C          2.9864766921       -0.3823590865       -0.6830881298
 N          3.0916995187        0.6322929521       -1.6525830119
 S          1.9434704945        1.8525267807       -1.6399642234
 O          0.6898917709        1.3803073523       -2.1646155119
 O          2.5683877821        2.9388275136       -2.3638974825
 C          1.7850257436        2.2793977151        0.0834942754
 C          0.7414700172        1.7570342177        0.8186988707
 C          0.6766810994        2.0246681133        2.1769711093
 C          1.6523548778        2.8095876369        2.7715490962
 C          2.6903535482        3.3363821931        2.0171843529
 C          2.7638124081        3.0648886129        0.6609499561
 H          3.5495991758        3.4601636802        0.0377204726
 H          3.4426730244        3.9514893465        2.4839670130
 H          1.5991543049        3.0106394110        3.8298393385
 H         -0.1261130848        1.6026887564        2.7616313897
 H         -0.0017562064        1.1521515591        0.3224975932
 H          4.0173277249        1.0300289650       -1.7312388039
 H          5.0199851319       -0.2274325433       -0.0216706799
 H          4.7657139741       -1.9865906669        1.6895387029
 H          2.5888337786       -3.0903685935        2.0202894215
 C          0.2798686064       -2.6884903662        0.6493220469
 H          0.2700369388       -3.1060048092        1.6690612044
 C          0.0609148280       -3.8463286180       -0.3140869881
 C          0.8299144766       -4.0135886751       -1.5862715149
 C          1.0896028937       -4.9321103907       -0.4324459988
 H          0.7533080901       -5.9556403871       -0.4994870246
 H          2.0156135489       -4.8039671004        0.1070827228
 H          0.2966565882       -4.3880418116       -2.4466434606
 H          1.5742882777       -3.2719911750       -1.8319480580
 H         -0.9786187176       -4.1566050546       -0.3391483514
 O         -1.3092723301       -1.7564114726       -1.6863599473
