  62
        -98.94488507
 C          1.9316964047        0.9306332401       -0.3302440685
 C          3.0330779828        1.2171933659        0.5151966291
 C          4.3283488409        0.6786146144        0.0884206178
 C          4.4114214019       -0.0359809551       -1.0485441137
 C          5.6641003129       -0.6360582125       -1.6269373129
 C          6.0343482169       -2.0015202240       -1.0317430548
 C          6.5786866355       -1.9624435401        0.3967963096
 H          6.9988271405       -2.9482310284        0.6061395236
 H          7.3954453310       -1.2421513703        0.4535189926
 C          5.5270703772       -1.6371084072        1.4668164085
 H          4.5270324412       -1.7873246468        1.0529350295
 H          5.6329328989       -2.3309182768        2.3038899643
 C          5.6200140367       -0.2217535094        2.0370705715
 H          6.5655585031       -0.1033705962        2.5708608832
 H          4.8081368912       -0.0887693821        2.7565011896
 C          5.5095417478        0.8910033154        0.9864747038
 H          5.3650620823        1.8407612123        1.5071444009
 H          6.4271714018        0.9486611358        0.4015762224
 H          6.7983732511       -2.4415754570       -1.6768649651
 H          5.1551760143       -2.6491278533       -1.0691971328
 H          6.4963280072        0.0563532318       -1.4970939265
 H          5.4821109822       -0.7648844494       -2.6960881531
 O          3.3323505063       -0.2848762936       -1.8360193508
 C          2.0663097536        0.1686375212       -1.4907521029
 O          1.1744795027       -0.1610741420       -2.2960497557
 O          2.9366977413        1.8938854186        1.5728613920
 C          0.5615925771        1.4410875738        0.0839432805
 C         -0.2896013484        0.2599906192        0.4762549144
 C         -0.1033043590       -0.3264023015        1.7251478076
 C         -0.8458980333       -1.4272689801        2.1093435231
 C         -1.7882553671       -1.9711736263        1.2531235214
 C         -1.9741195832       -1.3982965028        0.0029666477
 C         -1.2369164116       -0.2847188572       -0.3765686680
 H         -1.3859989571        0.1413302633       -1.3560673228
 N         -2.9451474697       -1.9424292758       -0.8680229347
 S         -4.5310812217       -1.7767815304       -0.3518170867
 O         -4.7458038122       -2.6349857705        0.7851618396
 O         -5.3539222510       -2.0314271693       -1.5122097304
 C         -4.6541965566       -0.0662226963        0.1375322645
 C         -4.3319432414        0.2896961242        1.4317925216
 C         -4.3353175860        1.6318337888        1.7762194084
 C         -4.6582164144        2.5888785878        0.8267602578
 C         -4.9840898269        2.2143326518       -0.4678055684
 C         -4.9752523922        0.8747125582       -0.8204172272
 H         -5.2241263701        0.5405644283       -1.8150518909
 H         -5.2395874728        2.9612818511       -1.2022642095
 H         -4.6564805821        3.6332277903        1.0966545184
 H         -4.0813719245        1.9253666516        2.7821396162
 H         -4.0908331465       -0.4836261880        2.1423045205
 H         -2.8596080324       -1.5933135373       -1.8125273482
 H         -2.3868694125       -2.8219370507        1.5363623750
 H         -0.6905681946       -1.8681193926        3.0824476900
 H          0.6393822808        0.0920938336        2.3901425616
 H          0.7404041057        2.0444480131        0.9842020114
 C         -0.0712099871        2.3187728628       -0.9753752128
 C         -1.2854566237        3.1243133279       -0.6235156909
 C          0.0281149698        3.8082565151       -0.8515306261
 H          0.1584009886        4.3907760871       -1.7512317553
 H          0.5550323989        4.2044116079        0.0038987045
 H         -2.0620551838        3.2381264135       -1.3640764545
 H         -1.6534148273        3.0493285360        0.3884120449
 H         -0.0098292079        1.8999467587       -1.9726238320
