  62
        -98.94487906
 C         -1.9375517170        0.5299603899        0.6238696376
 C         -3.0061542508        1.3163605996        0.1290635232
 C         -4.3430926854        0.7241476626        0.2432452017
 C         -4.4893722246       -0.4878169218        0.8090699454
 C         -5.7901809921       -1.2141805566        1.0204863362
 C         -6.2722676712       -2.0020530342       -0.2053915102
 C         -6.8054889087       -1.1499067562       -1.3577847574
 H         -7.3057643631       -1.8278210482       -2.0522113682
 H         -7.5588549553       -0.4588318919       -0.9784008326
 C         -5.7254942582       -0.3702873263       -2.1208239508
 H         -4.7438560622       -0.7936866031       -1.8954247253
 H         -5.8841877689       -0.4852211462       -3.1954505036
 C         -5.6983514684        1.1291965111       -1.8245401979
 H         -6.6287205877        1.5873457890       -2.1672510204
 H         -4.8755857173        1.5752690591       -2.3889152316
 C         -5.4994937907        1.4764882952       -0.3432539622
 H         -5.2745992855        2.5431439112       -0.2680200055
 H         -6.4111347344        1.2707562466        0.2170994636
 H         -5.4507759557       -2.6270878936       -0.5633150366
 H         -7.0732343684       -2.6656964471        0.1285742290
 H         -5.6222944629       -1.9187773395        1.8378826574
 H         -6.5607472988       -0.5055565242        1.3254549384
 O         -3.4379816804       -1.2058125654        1.2864203511
 C         -2.1373765265       -0.7295450098        1.1887439686
 O         -1.2748662542       -1.5069010402        1.6396541520
 H          1.7401937875       -0.4138283952        1.1448488259
 C          1.4167166825       -0.5186358528        0.1235913403
 C          0.3039919388        0.1619358708       -0.3426430662
 C         -0.0889678628       -0.0270609945       -1.6664879791
 C          0.6054410593       -0.8856451716       -2.4947097252
 C          1.7140182879       -1.5682180410       -2.0234730024
 C          2.1164778680       -1.3862017936       -0.7064873229
 N          3.2233361057       -2.0866832734       -0.2014791835
 S          4.3781087142       -1.3213228740        0.7310404748
 O          5.4890185586       -2.2469769605        0.7590229634
 O          3.8310587145       -0.9409465192        2.0074554241
 C          4.8204257585        0.1244816274       -0.2146093702
 C          4.1975153407        1.3281066998        0.0451698776
 C          4.5052108048        2.4240626254       -0.7458507329
 C          5.4228240834        2.2979868046       -1.7771667698
 C          6.0424308800        1.0819064472       -2.0232945143
 C          5.7366072721       -0.0180071920       -1.2388613408
 H          6.2029261931       -0.9782892824       -1.3888261123
 H          6.7589686405        0.9881786462       -2.8233316200
 H          5.6580354257        3.1536268749       -2.3902838581
 H          4.0257436022        3.3707055677       -0.5538838724
 H          3.4921267459        1.3889828346        0.8571012350
 H          3.6583673000       -2.7110710813       -0.8647410977
 H          2.2542238001       -2.2473285810       -2.6655168707
 H          0.2849668994       -1.0255071186       -3.5160509754
 H         -0.9577645732        0.5039014263       -2.0310674571
 C         -0.5238369268        1.0774691302        0.5237757358
 H         -0.6257079026        2.0425973048        0.0062401800
 C          0.0552560827        1.3243104304        1.8995578264
 C          1.1174829396        2.3641445791        2.0887817510
 C         -0.2690316046        2.6065203324        2.6035991282
 H         -0.4384384730        2.5801567533        3.6695968316
 H         -0.8922071674        3.3164728300        2.0795945818
 H          1.9049048896        2.1711693022        2.8026342495
 H          1.4309146158        2.9187465528        1.2170096507
 H          0.1061964087        0.4265834363        2.5057330511
 O         -2.8490854378        2.4568813327       -0.3827930467
