  62
        -98.93855301
 C          2.5521592652        1.3791407187        0.1465671243
 C          2.5755110800        0.2934082939       -0.7586213706
 C          3.6941313104       -0.6589301973       -0.6162833167
 C          4.6115300703       -0.4668299150        0.3497407462
 C          5.8729312996       -1.2292020684        0.6991084973
 C          6.1430714135       -2.6084752663        0.1044952165
 C          5.2034618802       -3.7094508824        0.5960664280
 H          5.4086326413       -4.6167711072        0.0239657688
 H          5.4324697140       -3.9180364562        1.6440994377
 C          3.7125166655       -3.3927139645        0.5075888759
 H          3.1630318130       -4.2482786147        0.9097405626
 H          3.4794285565       -2.5359141420        1.1432639180
 C          3.1823355248       -3.1235973909       -0.8992356744
 H          2.0919463670       -3.0601306965       -0.8339767537
 H          3.4284084105       -3.9636670955       -1.5520282092
 C          3.6834658421       -1.8278293761       -1.5590814434
 H          4.6623635163       -1.9681943540       -2.0112405846
 H          2.9857775830       -1.5684509618       -2.3609710893
 H          6.1390748889       -2.5579670783       -0.9802866147
 H          7.1578136119       -2.8836238198        0.4044415175
 H          6.7016878080       -0.5664575718        0.4265760064
 H          5.8845128311       -1.3017639161        1.7912582282
 O          4.5372513286        0.5916546082        1.2094240272
 C          3.5174761121        1.5211138840        1.1437722381
 O          3.5803333404        2.4144384552        2.0115982224
 H         -0.5935868835        1.5540354174       -1.5273851353
 C         -0.7828098094        1.3670934495       -0.4825462471
 C          0.1448263935        1.7599388531        0.4677153205
 C         -0.1107116357        1.4761945580        1.8069834131
 C         -1.2702793192        0.8245641055        2.1805588529
 C         -2.1966222437        0.4345765007        1.2278702529
 C         -1.9410150816        0.6944052711       -0.1109600444
 N         -2.8691359447        0.3068905306       -1.0893825774
 S         -3.6378153789       -1.1766287310       -0.9667875230
 O         -2.8236841296       -2.1584532054       -0.2885670300
 O         -4.0442232908       -1.5001035866       -2.3171365443
 C         -5.0906592303       -0.8105754154       -0.0020138648
 C         -5.4095348550       -1.5931011685        1.0902710222
 C         -6.5518420566       -1.2964357783        1.8177616688
 C         -7.3517502603       -0.2286058463        1.4413943515
 C         -7.0194502585        0.5460471547        0.3399497800
 C         -5.8798950274        0.2537984390       -0.3920144982
 H         -5.5889469923        0.8298284281       -1.2543746288
 H         -7.6435868788        1.3760522653        0.0504043942
 H         -8.2391368064        0.0012461685        2.0097558293
 H         -6.8116858701       -1.8982082990        2.6738475069
 H         -4.7549773789       -2.4100300824        1.3501684685
 H         -2.5594856494        0.4806179664       -2.0345897303
 H         -3.0974287566       -0.0842284004        1.5119902541
 H         -1.4570203450        0.6153155563        3.2230344093
 H          0.6212089749        1.7660724712        2.5486860473
 C          1.4488085739        2.4241652804        0.0991757338
 H          1.6925434621        3.1513021905        0.8853177388
 C          1.4206851799        3.1410326089       -1.2344382052
 C          0.6665069770        4.4296354860       -1.3602373684
 C          2.1647677247        4.4321893595       -1.3851691914
 H          2.6659814492        4.6307077558       -2.3207272849
 H          2.6916621845        4.8083388730       -0.5203799087
 H          0.1373371441        4.6312701835       -2.2790667267
 H          0.1739303506        4.8050495954       -0.4761784321
 H          1.4253261807        2.4681994152       -2.0831792823
 O          1.7171136836        0.1221885624       -1.6647071556
