  62
        -98.94193970
 C          1.1893683411        1.5828383499        0.5145256062
 C          2.0838163151        1.1544699708       -0.4947424994
 C          3.0714693295        0.1348858855       -0.1009566481
 C          3.0858932906       -0.3210575176        1.1630200118
 C          4.0226008419       -1.3210761339        1.7937805205
 C          4.3704875529       -2.5791681092        0.9880196512
 C          3.2433963840       -3.1183027650        0.0948280897
 H          3.1222944381       -4.1872383451        0.2832091506
 H          2.2909310378       -2.6429770886        0.3403237392
 C          3.5258980933       -2.9370876406       -1.3982765113
 H          4.5678180535       -3.2006298528       -1.5963342990
 H          2.8961784988       -3.6345163236       -1.9562738915
 C          3.2462057792       -1.5398787255       -1.9482924749
 H          2.1684571565       -1.3517973909       -1.9250360763
 H          3.5535640085       -1.5212902723       -2.9970423209
 C          3.9427474162       -0.3859330465       -1.2067457378
 H          4.9237668211       -0.6844880397       -0.8450111666
 H          4.0656328866        0.4420506158       -1.9102730468
 H          5.2477765940       -2.3866975049        0.3715531191
 H          4.6567069681       -3.3450057603        1.7112540033
 H          4.9478612187       -0.7998261187        2.0578445058
 H          3.5378395439       -1.6115198430        2.7291549806
 O          2.2158908558        0.1341373251        2.1089525984
 C          1.2298119161        1.0567476480        1.8029009355
 O          0.4627061852        1.3238779703        2.7518918336
 H         -0.4387204060       -0.0371455969       -0.2455988580
 C         -0.9939936052        0.5853038918       -0.9283199468
 C         -0.8314075055        1.9617815466       -0.8830329944
 C         -1.5360696388        2.7382779902       -1.7954554289
 C         -2.3634202128        2.1391039766       -2.7297608193
 C         -2.5174317149        0.7646763543       -2.7718210610
 C         -1.8181851195       -0.0201244855       -1.8621124488
 N         -1.9177358728       -1.4180229624       -1.8727451947
 S         -1.7488633537       -2.3002315850       -0.4655190067
 O         -0.3812081750       -2.2877471157       -0.0118179804
 O         -2.2903469322       -3.5998780794       -0.8016650642
 C         -2.8239496575       -1.4936158484        0.7071324353
 C         -4.1853361991       -1.5940160277        0.4896060564
 C         -5.0546165992       -0.9453093767        1.3500915901
 C         -4.5510196619       -0.2021841450        2.4077458026
 C         -3.1839768005       -0.1149090380        2.6162829116
 C         -2.3095850568       -0.7672538713        1.7606076719
 H         -1.2421581463       -0.7087494739        1.9074404179
 H         -2.7789174663        0.4618204884        3.4328107109
 H         -5.2259369859        0.3096591013        3.0753951665
 H         -6.1188033542       -1.0169345381        1.1935443737
 H         -4.5373367624       -2.1902172520       -0.3364925179
 H         -2.6158168372       -1.8027958001       -2.4906337268
 H         -3.1582949321        0.3020743495       -3.5063298475
 H         -2.8994674866        2.7530555153       -3.4374193082
 H         -1.4296979552        3.8107910615       -1.7800217260
 C          0.0724252220        2.5508923362        0.1763378666
 H         -0.5200786209        2.6655791887        1.0971419809
 C          0.6333635367        3.9041200526       -0.2131360566
 C         -0.0974017890        5.1627459420        0.1438269408
 C          1.1660181080        4.8005359752        0.8630125925
 H          2.0600341097        5.3718922062        0.6635578974
 H          1.0933335077        4.4462584528        1.8813487353
 H         -0.0691685251        5.9890544407       -0.5504878953
 H         -1.0278219386        5.0678634033        0.6832034246
 H          1.1747716966        3.8723306653       -1.1513763035
 O          2.0622068230        1.5995912398       -1.6718085418
