  62
        -98.93871785
 C         -2.0201087313       -0.5037067997       -0.2404285024
 C         -3.0347717454       -0.8339929237        0.6905711154
 C         -4.2381623494        0.0187680292        0.7101414315
 C         -4.2963405556        1.0706109920       -0.1275515224
 C         -5.4219835641        2.0530337319       -0.3116339241
 C         -6.5933515851        1.4669880702       -1.1172533018
 C         -6.9887444922        0.0428094391       -0.7353914733
 H         -7.7425130234       -0.2952826828       -1.4514069268
 H         -6.1218834044       -0.6113073725       -0.8452456215
 C         -7.5719484375       -0.1178171166        0.6664455096
 H         -7.8804658651       -1.1610986048        0.7719072802
 H         -8.4664205993        0.5028984110        0.7553017749
 C         -6.6313855107        0.2188090625        1.8251906326
 H         -7.0943339523       -0.1616578697        2.7404939058
 H         -6.5362101597        1.2938310159        1.9525517170
 C         -5.2519144028       -0.4266053779        1.7364332783
 H         -4.7542021348       -0.3183021836        2.7078204009
 H         -5.3704289195       -1.5066756288        1.5932747095
 H         -7.4538961267        2.1288415804       -1.0062392073
 H         -6.3067479685        1.4603962646       -2.1717541262
 H         -5.7587869330        2.4187885496        0.6538555226
 H         -5.0109220063        2.9016223281       -0.8630709585
 O         -3.2878001375        1.3620999758       -0.9963384162
 C         -2.1356780081        0.6015364340       -1.0822741774
 O         -1.3237416331        1.0114773729       -1.9349115348
 O         -2.9484953838       -1.8155960260        1.4764596756
 C         -0.7752913567       -1.3759484017       -0.2665100340
 C          0.3631276052       -0.6171893470        0.3701222559
 C          0.5824238091       -0.7284451558        1.7399527458
 C          1.5907828241       -0.0094005731        2.3552184602
 C          2.3996426544        0.8377179646        1.6186062280
 C          2.1864622917        0.9575570925        0.2513574848
 C          1.1840111775        0.2226237198       -0.3680058809
 H          1.0136093392        0.3419172876       -1.4263017958
 N          2.9959525425        1.8226118283       -0.5021269423
 S          4.6454444904        1.8002361817       -0.2381674706
 O          4.9620352161        2.5780942726        0.9343661155
 O          5.2369302924        2.2572101599       -1.4760494791
 C          5.0460468556        0.0855217690        0.0506887546
 C          5.5604158119       -0.3089485416        1.2687460892
 C          5.8315552293       -1.6517267666        1.4787021677
 C          5.5816793087       -2.5719108340        0.4728762210
 C          5.0679188362       -2.1593140777       -0.7472286295
 C          4.7954101155       -0.8184903586       -0.9626983012
 H          4.4005398011       -0.4639356745       -1.9012382169
 H          4.8757466969       -2.8769121218       -1.5286091951
 H          5.7890219582       -3.6172739151        0.6387510807
 H          6.2329244055       -1.9751482848        2.4255603068
 H          5.7387528074        0.4394299215        2.0235864566
 H          2.7678511864        1.8470732948       -1.4845556272
 H          3.1788664216        1.4201466415        2.0828247139
 H          1.7473466873       -0.1050439874        3.4188309864
 H         -0.0599007099       -1.3755831662        2.3201092002
 H         -1.0122496295       -2.2309842882        0.3804189095
 C         -0.4543306201       -1.8921580069       -1.6539331335
 C          0.5214290123       -3.0197397538       -1.8033845980
 C         -0.9370080857       -3.2519776393       -2.0571072736
 H         -1.2685995537       -3.3994978707       -3.0741145749
 H         -1.4988725796       -3.8192218082       -1.3295745703
 H          1.1931559711       -3.0110661458       -2.6478646865
 H          0.9502101632       -3.4282157385       -0.9010239056
 H         -0.4610282638       -1.1227259619       -2.4155225415
