  62
        -98.94507191
 C         -2.5546027788       -0.0908927558        0.4110055406
 C         -2.3290213127        0.5637399164       -0.8237091386
 C         -2.0891706326        2.0111795871       -0.7469880335
 C         -2.1035028840        2.6200477954        0.4523307811
 C         -1.8870529926        4.0892508997        0.6728629094
 C         -0.4165753296        4.4221574771        0.9544950343
 C          0.5669702737        3.8207904250       -0.0496114479
 H          0.5949774887        2.7356140869        0.0734131692
 H          1.5604143696        4.1914399687        0.2146891147
 C          0.2732317056        4.1581002122       -1.5178179670
 H          1.2156897766        4.4081592437       -2.0094138333
 H         -0.3681041311        5.0386909571       -1.5773746449
 C         -0.3540065513        3.0134091575       -2.3165433942
 H          0.2054968272        2.0930823331       -2.1279680957
 H         -0.2606362596        3.2476027783       -3.3805795468
 C         -1.8371927183        2.7383562306       -2.0371569625
 H         -2.2109744168        2.0799532507       -2.8268792997
 H         -2.4004882138        3.6735221476       -2.0730220650
 H         -0.1592064469        4.0457788487        1.9475836099
 H         -0.3100879578        5.5091763024        0.9643042921
 H         -2.2293171305        4.6318216812       -0.2065972974
 H         -2.4874024746        4.3942333002        1.5323566602
 O         -2.3162791094        1.9557980830        1.6188121350
 C         -2.5200784509        0.5856482135        1.6281674838
 O         -2.6697308901        0.0947103528        2.7681215192
 H         -0.2074439373       -0.9212226662        0.5457844945
 C         -0.3510714870       -1.8120382327       -0.0483744395
 C         -1.6342799952       -2.3132468010       -0.2227750619
 C         -1.7962543683       -3.4731438808       -0.9696260341
 C         -0.6979114145       -4.0987806395       -1.5348158751
 C          0.5743127618       -3.5821313185       -1.3781618491
 C          0.7462838275       -2.4174031172       -0.6358790422
 N          2.0179469231       -1.8341677576       -0.5140355059
 S          2.3123524849       -0.6100468302        0.5971431372
 O          2.0600727311       -1.0735450972        1.9457795829
 O          1.6116890640        0.5775586561        0.1816585748
 C          4.0646778987       -0.3968066003        0.3503820022
 C          4.4988208743        0.4537875307       -0.6482620834
 C          5.8607332552        0.5975067529       -0.8611679899
 C          6.7608628231       -0.1090414881       -0.0774642626
 C          6.3106507423       -0.9572529539        0.9231192303
 C          4.9499082171       -1.1052116253        1.1409809796
 H          4.5539925407       -1.7427870373        1.9151523141
 H          7.0126802049       -1.5020794714        1.5334645430
 H          7.8201415199        0.0047989711       -0.2451955950
 H          6.2139711334        1.2591777335       -1.6354717009
 H          3.7613218529        0.9873071142       -1.2252756526
 H          2.7830946605       -2.4875716813       -0.5967975328
 H          1.4267139518       -4.0634793789       -1.8318592603
 H         -0.8367134692       -5.0009438283       -2.1111321806
 H         -2.7819875003       -3.8856786441       -1.1107288087
 C         -2.7847036233       -1.5901908899        0.4371304084
 H         -2.8019580791       -1.8775534011        1.5000217260
 C         -4.1282900136       -1.9235896272       -0.1810812732
 C         -4.9370869823       -3.0767641290        0.3302663038
 C         -5.3709580165       -1.6717017163        0.6171304717
 H         -6.2408368767       -1.2829433082        0.1095793211
 H         -5.2424764454       -1.2885476705        1.6194424506
 H         -4.5269354708       -3.6536637924        1.1455372345
 H         -5.5150468171       -3.6542437889       -0.3754791270
 H         -4.1600367640       -1.7025419140       -1.2418416845
 O         -2.3424354949       -0.0284079510       -1.9350327040
