  62
        -98.94442596
 C         -1.9132181346        1.0765902603        0.2092439443
 C         -2.4140729221       -0.0812279716        0.8512795099
 C         -3.8727103642       -0.2599172170        0.7966685963
 C         -4.6296956194        0.6682460970        0.1834626053
 C         -6.1179140884        0.5832047983        0.0093150183
 C         -6.4835252025       -0.1042523626       -1.3137860245
 C         -5.7447214360       -1.4214926886       -1.5505363946
 H         -6.1036505331       -1.8299773693       -2.4976925597
 H         -4.6786168638       -1.2165472585       -1.6720786797
 C         -5.9342452418       -2.4640119168       -0.4398838199
 H         -6.1308801690       -3.4345462526       -0.9002965286
 H         -6.8066688178       -2.2091218577        0.1629227725
 C         -4.7215990892       -2.6433853478        0.4755879487
 H         -4.8789435679       -3.5434377063        1.0760407237
 H         -3.8253168949       -2.8065982601       -0.1285545371
 C         -4.4421513052       -1.4892846648        1.4466473431
 H         -5.3500034932       -1.2477712243        2.0033238439
 H         -3.6831894269       -1.8300669917        2.1572143735
 H         -6.2432459537        0.5752098386       -2.1347386993
 H         -7.5603826207       -0.2820707766       -1.3241948691
 H         -6.5456490861        0.0350021866        0.8463893527
 H         -6.5221980020        1.5968361559        0.0057042052
 O         -4.1127224062        1.7801944791       -0.3991293920
 C         -2.7461569941        2.0059797072       -0.4133133565
 O         -2.4015980424        3.0497784171       -1.0034844668
 H          1.7354722451       -0.1138367605        1.1692868552
 C          1.3804094202       -0.4496063215        0.2100194219
 C          0.3085122412        0.1725947731       -0.4090748700
 C         -0.1189164067       -0.3088266095       -1.6449138036
 C          0.4920591456       -1.4000306351       -2.2293305677
 C          1.5537214278       -2.0279405041       -1.6008877623
 C          1.9959855860       -1.5499849936       -0.3742696493
 N          3.0623794324       -2.1765277477        0.2895825575
 S          4.2563661762       -1.2608399672        1.0147283953
 O          5.3685778280       -2.1733986496        1.1657239771
 O          3.7655190318       -0.6534818906        2.2247667124
 C          4.6528162338       -0.0107803345       -0.1937977270
 C          4.2355419302        1.2898285136       -0.0023900392
 C          4.5074316000        2.2311721468       -0.9827849880
 C          5.1859076473        1.8566100075       -2.1318603681
 C          5.6034301756        0.5457255873       -2.3071005954
 C          5.3331239144       -0.3995311568       -1.3315832140
 H          5.6524301207       -1.4247386616       -1.4259183305
 H          6.1354798876        0.2592673573       -3.1999452045
 H          5.3926598022        2.5917667974       -2.8935695741
 H          4.1867648110        3.2518129169       -0.8464727880
 H          3.7124909299        1.5418520774        0.9051663697
 H          3.4563721635       -2.9648137107       -0.2025279087
 H          2.0262589515       -2.8882915932       -2.0498390295
 H          0.1413241546       -1.7666166383       -3.1823623836
 H         -0.9508692340        0.1805564348       -2.1336801652
 C         -0.4188075211        1.3479068312        0.1963750750
 H         -0.2744134725        2.2182507456       -0.4603535484
 C          0.0517249063        1.7078877727        1.5898582849
 C          1.1978890399        2.6532547271        1.7803841785
 C         -0.1980755632        3.0936760281        2.1016506497
 H         -0.4778924527        3.2185919308        3.1369542625
 H         -0.6830593090        3.7883045088        1.4310068572
 H          1.6577823005        3.0617238692        0.8931717416
 H          1.8819745211        2.4746311758        2.5971829620
 H         -0.0607708675        0.8916604972        2.2947731505
 O         -1.6852654427       -0.9232665617        1.4380778203
