  62
        -98.93560274
 C         -2.3219618149       -0.6356102644        0.8743547526
 C         -3.4890805298       -1.0349761796        0.1754844638
 C         -4.6479627239       -0.1337081067        0.2967849143
 C         -4.5474048374        0.9862389769        1.0334179778
 C         -5.6299372125        2.0142227284        1.1883537887
 C         -5.5162955059        3.1084076644        0.1176767448
 C         -5.3619768956        2.5680033270       -1.3039842600
 H         -5.3222261454        3.4282348321       -1.9757484625
 H         -4.4022728488        2.0522768349       -1.3860964491
 C         -6.4862132196        1.6223224312       -1.7492694922
 H         -7.3541586962        1.7478673282       -1.1010268574
 H         -6.7942075850        1.8967868723       -2.7603658648
 C         -6.0930388670        0.1445611527       -1.7889706423
 H         -5.1694958467        0.0267368603       -2.3611484690
 H         -6.8780890169       -0.4019795418       -2.3181818843
 C         -5.9045524908       -0.5325194145       -0.4256435114
 H         -6.7811858003       -0.3521071857        0.1995685355
 H         -5.8201851666       -1.6092566304       -0.5992354981
 H         -6.4044900296        3.7403250267        0.1747630102
 H         -4.6441647724        3.7257967544        0.3455707351
 H         -6.5996961797        1.5248910880        1.1212057131
 H         -5.5305697935        2.4710792262        2.1744301135
 O         -3.4124785399        1.3355167765        1.6936048548
 C         -2.2814228723        0.5406967854        1.6275413799
 O         -1.3136447879        0.9772113777        2.2854790930
 O         -3.5816374329       -2.0796789407       -0.5169800688
 C         -1.0355993070       -1.4447211635        0.8708287732
 C         -0.1576871161       -1.0780048753       -0.2987823528
 C         -0.6646751242       -1.0090914618       -1.5927367025
 C          0.1616527963       -0.6751412759       -2.6499003609
 C          1.5024865542       -0.4068253038       -2.4395482961
 C          2.0222438581       -0.4825647487       -1.1519798808
 C          1.1885287979       -0.8131575864       -0.0922962319
 H          1.5965342274       -0.8450494949        0.9067160218
 N          3.3932652608       -0.2708537403       -0.9295202060
 S          3.9203399101        0.4191091408        0.5172948834
 O          3.8305877383       -0.5692100752        1.5622230092
 O          3.2406060766        1.6738142433        0.7501582214
 C          5.6327375457        0.7052295565        0.1117128183
 C          6.5065341253       -0.3651510413        0.1505528002
 C          7.8341434388       -0.1585951720       -0.1882808041
 C          8.2639292075        1.1074567996       -0.5578864825
 C          7.3762016548        2.1722915282       -0.5895270189
 C          6.0462303713        1.9721614954       -0.2535832576
 H          5.3219296074        2.7709701860       -0.2555927392
 H          7.7139745315        3.1559624541       -0.8734487909
 H          9.2980361848        1.2659520656       -0.8200275294
 H          8.5279176813       -0.9833080615       -0.1618802516
 H          6.1291493529       -1.3277620948        0.4535298722
 H          3.8535348260        0.1565484109       -1.7220403083
 H          2.1446684300       -0.1449072033       -3.2666683176
 H         -0.2434125135       -0.6210297343       -3.6492550120
 H         -1.7081565287       -1.2281068068       -1.7598061930
 H         -0.5008902063       -1.1389732805        1.7853878266
 C         -1.2762264938       -2.9461761082        0.9721940582
 C         -0.9966073749       -3.9061726202       -0.1407217195
 C         -0.1068365912       -3.8816802263        1.0631412677
 H         -0.1545847455       -4.7016371412        1.7637183963
 H          0.8786345972       -3.4530416626        0.9521169379
 H         -1.6787506787       -4.7325240691       -0.2683374754
 H         -0.6112349599       -3.5130971139       -1.0679743529
 H         -2.1307399145       -3.1748593645        1.6009897796
