  62
        -98.93541043
 C          1.9771512355       -0.3888837184       -0.0071663603
 C          3.0847818664       -1.0375323283       -0.6090191036
 C          4.3290778306       -0.2600843862       -0.7416455984
 C          4.3507257499        1.0207241844       -0.3296314585
 C          5.4449643668        2.0668009601       -0.3762878679
 C          6.8891588763        1.6736093396       -0.6754916082
 C          7.5636835424        0.8413908904        0.4149258416
 H          8.5446509599        0.5295324741        0.0498339677
 H          7.7215138347        1.4782375681        1.2891060835
 C          6.7904695566       -0.3909442922        0.8776654650
 H          5.8447063523       -0.0819324858        1.3277689973
 H          7.3758612824       -0.8775004220        1.6626594678
 C          6.5098330112       -1.4312515165       -0.2048788232
 H          6.0974073546       -2.3161729827        0.2876012630
 H          7.4457188475       -1.7231469620       -0.6851936217
 C          5.5129509113       -1.0003799941       -1.2943748403
 H          6.0031212582       -0.4172587855       -2.0702625873
 H          5.1158633556       -1.9042922299       -1.7655313867
 H          6.9505865425        1.1686719043       -1.6350477011
 H          7.4514359240        2.6063279263       -0.7730412869
 H          5.1221996267        2.7979282912       -1.1258886101
 H          5.4067996600        2.5816014085        0.5892051961
 O          3.2452074800        1.6195698560        0.1994246436
 C          2.0437475981        0.9478580048        0.3850299223
 O          1.1556759997        1.6532026592        0.8972455087
 O          3.0363267572       -2.2243343194       -1.0288686740
 C          0.6953874395       -1.1914461858        0.1359324671
 C         -0.4704846556       -0.4111072421       -0.4129520388
 C         -0.6398575621       -0.3230371258       -1.7913827788
 C         -1.6823358350        0.4068710956       -2.3312274635
 C         -2.5758118671        1.0677014725       -1.5071485943
 C         -2.4128809825        0.9887055982       -0.1304926245
 C         -1.3758677141        0.2399977453        0.4101070989
 H         -1.2485687620        0.2018869259        1.4806147916
 N         -3.3139786093        1.6636183348        0.7104964050
 S         -4.9489705167        1.4761959508        0.4207814396
 O         -5.3501450160        2.3126335652       -0.6828308429
 O         -5.5953334661        1.7449923140        1.6860038119
 C         -5.1311012950       -0.2421160234       -0.0232178613
 C         -5.4669292620       -0.5930591399       -1.3145267906
 C         -5.5448615265       -1.9368756205       -1.6446240197
 C         -5.2833153676       -2.9006875926       -0.6836463872
 C         -4.9505426345       -2.5319792979        0.6111187200
 C         -4.8707807654       -1.1904973398        0.9463937489
 H         -4.6221160591       -0.8672723276        1.9445400253
 H         -4.7501949195       -3.2840400912        1.3573546713
 H         -5.3400836562       -3.9459654219       -0.9435451608
 H         -5.8055982262       -2.2267632319       -2.6497176812
 H         -5.6632496898        0.1876987189       -2.0308575397
 H         -3.0955204152        1.5845245555        1.6922394424
 H         -3.3850615963        1.6562917647       -1.9080493082
 H         -1.7986952325        0.4675262629       -3.4026580445
 H          0.0650177731       -0.8282981829       -2.4372103367
 H          0.8541097034       -2.0668807162       -0.5142968329
 C          0.4411495828       -1.7355011950        1.5340400719
 C          1.5799587715       -2.2114372098        2.3841471666
 C          0.8052278895       -0.9930883958        2.7834671388
 H          0.1406703900       -1.0666747944        3.6325300207
 H          1.2724132099       -0.0261987060        2.6810161240
 H          1.4534672151       -3.1161463357        2.9593510024
 H          2.5792214049       -2.0754747519        1.9968116208
 H         -0.4685342631       -2.3274050985        1.5715496241
