  62
        -98.94939358
 C          0.4264096819        1.8406350718       -0.1322243247
 C          1.6041286742        1.9668416925        0.6397094827
 C          2.7585320384        1.1889568704        0.1775763200
 C          2.6446491164        0.4104249120       -0.9141853302
 C          3.7557965137       -0.3801861845       -1.5531735321
 C          4.0269710055       -1.7499024791       -0.9174004584
 C          4.6795638968       -1.7137365225        0.4644364068
 H          4.9978090580       -2.7325034163        0.6952579685
 H          5.5757205993       -1.0932329965        0.4281214976
 C          3.7582012234       -1.2205843142        1.5892614591
 H          2.7136432470       -1.2701798922        1.2696430145
 H          3.8473497252       -1.8844545532        2.4527869040
 C          4.0610169444        0.1966622314        2.0761564425
 H          5.0461065900        0.2184435458        2.5485889327
 H          3.3182351889        0.4616212284        2.8334087373
 C          4.0241057841        1.2655206348        0.9766249369
 H          4.0551964403        2.2481404192        1.4544218849
 H          4.8934524316        1.1650195563        0.3265563826
 H          3.0882274425       -2.3033081853       -0.8544532040
 H          4.6900715017       -2.2957474404       -1.5929280809
 H          3.4632041952       -0.5360077797       -2.5937365825
 H          4.6722077878        0.2113964680       -1.5372529727
 O          1.4844758279        0.2931651939       -1.6127422021
 C          0.3454556421        0.9910362535       -1.2357198949
 O         -0.6488002261        0.7810632432       -1.9542032856
 H         -0.8131574796        0.1539335677        1.2606284153
 C         -1.8102932094        0.4951093374        1.0241686161
 C         -1.9978315002        1.7606988545        0.4856906098
 C         -3.2957236385        2.1772539678        0.2112716573
 C         -4.3696790685        1.3415802717        0.4614238642
 C         -4.1752631771        0.0718616425        0.9733594048
 C         -2.8814655593       -0.3529471280        1.2530581028
 N         -2.6397627587       -1.6363443672        1.7699439388
 S         -1.2986447054       -2.4957671730        1.2822707365
 O         -1.6078727875       -3.8652059289        1.6437096390
 O         -0.1034626849       -1.9560007118        1.8831910118
 C         -1.1894694162       -2.3835094123       -0.4944591256
 C          0.0673535946       -2.4881816329       -1.0512699666
 C          0.2028213681       -2.4736977174       -2.4285793432
 C         -0.9232812761       -2.3514003000       -3.2253437520
 C         -2.1805916473       -2.2505868316       -2.6532511575
 C         -2.3212358412       -2.2734732094       -1.2753863878
 H         -3.2928372893       -2.1913880496       -0.8164777705
 H         -3.0540791202       -2.1456940885       -3.2764568111
 H         -0.8182993320       -2.3254086560       -4.2984948989
 H          1.1835928958       -2.5423282588       -2.8718692414
 H          0.9143824295       -2.5626289018       -0.3863633428
 H         -3.4525263395       -2.2300241466        1.8485189898
 H         -5.0117493117       -0.5848782721        1.1584091812
 H         -5.3715429138        1.6795058821        0.2450417478
 H         -3.4653533460        3.1588698170       -0.1997580571
 C         -0.7980627886        2.6455038051        0.2546708876
 H         -0.5413811453        3.1285427459        1.2104608966
 C         -1.0527765965        3.7247683865       -0.7806033052
 C         -1.5874681253        5.0649915988       -0.3748621153
 C         -0.1585661580        4.9270716130       -0.8035206689
 H          0.1387894466        5.3320616512       -1.7591162412
 H          0.6114548152        4.9828550732       -0.0477057305
 H         -1.7845122013        5.2302891234        0.6737072890
 H         -2.2723934255        5.5696723056       -1.0396456976
 H         -1.3640689330        3.3146609564       -1.7349396839
 O          1.6924724818        2.7102353036        1.6557288031
