  62
        -98.94424991
 C          1.9848460090        1.2634666164       -0.0003428416
 C          2.3637682982        0.2827322416       -0.9488407404
 C          3.7862998335       -0.0835692588       -0.9502622593
 C          4.6368900779        0.5184785625       -0.0997608520
 C          6.1166786057        0.2664873764        0.0015884273
 C          6.4846834125       -0.9387218789        0.8778265651
 C          6.1775782519       -2.3060636599        0.2657492157
 H          6.6131280256       -2.3625339583       -0.7323513749
 H          6.6803050860       -3.0533643666        0.8829235897
 C          4.6825716841       -2.6485227419        0.1972933203
 H          4.5259568454       -3.6698092728        0.5518679403
 H          4.1254351613       -1.9900879518        0.8680231348
 C          4.0738510545       -2.5576827511       -1.2021720234
 H          3.0062861298       -2.7806356582       -1.1256356101
 H          4.5295455480       -3.3103912873       -1.8494917971
 C          4.2249233400       -1.1839435212       -1.8685012271
 H          5.2565671551       -1.0299996681       -2.1840619593
 H          3.5804633816       -1.1586269673       -2.7506255398
 H          7.5583274091       -0.8846733979        1.0721905382
 H          5.9684373458       -0.8447855266        1.8360201423
 H          6.5359869614        0.1341734323       -0.9961059603
 H          6.5546290617        1.1621780698        0.4472839826
 O          4.2352213588        1.4700566513        0.7842023100
 C          2.9047876686        1.8412542412        0.8773134878
 O          2.6690446182        2.6881303329        1.7622064811
 H         -1.1912697660        0.0451763683       -1.2376558637
 C         -1.0948694157       -0.2217608360       -0.1973081859
 C         -0.2658952402        0.5166608527        0.6318009529
 C         -0.1479494307        0.1351730467        1.9656416930
 C         -0.8414198500       -0.9556769382        2.4552057550
 C         -1.6648823869       -1.6944719654        1.6223360875
 C         -1.7823754320       -1.3254833572        0.2901963146
 N         -2.6369832549       -2.0667600200       -0.5576187472
 S         -4.2692342571       -1.9290385992       -0.2024612918
 O         -4.5339726257       -2.5932827338        1.0479141148
 O         -4.9711258047       -2.4350282064       -1.3599073152
 C         -4.5302550863       -0.1728034831       -0.0334191187
 C         -4.3409525551        0.4203491226        1.1985847147
 C         -4.4493075703        1.7979669487        1.3006731368
 C         -4.7419848296        2.5539363760        0.1761099689
 C         -4.9328824336        1.9422874933       -1.0534547765
 C         -4.8191057139        0.5660766508       -1.1633658721
 H         -4.9621260923        0.0505122742       -2.0996310866
 H         -5.1647261213        2.5336765286       -1.9246767253
 H         -4.8226043955        3.6264896745        0.2580092112
 H         -4.3001505741        2.2759877229        2.2556039951
 H         -4.1187856851       -0.2015491787        2.0500721371
 H         -2.4873771811       -1.8619975029       -1.5359754039
 H         -2.2240514649       -2.5416304365        1.9855834891
 H         -0.7400153060       -1.2361876241        3.4927789859
 H          0.5030139072        0.7071360679        2.6129766284
 C          0.5340478047        1.6963059920        0.1372528086
 H          0.5231221620        2.4652353517        0.9211617860
 C          0.0020070044        2.2987682608       -1.1460714909
 C         -1.2903582277        3.0571164091       -1.1163834362
 C          0.0036082325        3.7871178242       -1.3125041482
 H          0.2244080578        4.1950059706       -2.2875285568
 H          0.3875638774        4.3803032687       -0.4955157739
 H         -1.7894336867        3.1496297310       -0.1637689907
 H         -1.9625792316        2.9660101476       -1.9557323016
 H          0.2235912413        1.7021530651       -2.0224291093
 O          1.5681071867       -0.2584536137       -1.7601217970
