  62
        -98.93517076
 C          2.6789122223        0.2185711093       -0.1602831800
 C          2.0930131047        1.0000499785        0.8656402869
 C          1.5632005752        2.3098491464        0.4514756975
 C          1.6332154740        2.6904959977       -0.8351456073
 C          1.1247032427        3.9808415733       -1.4204148643
 C         -0.4062101036        4.1585802789       -1.3853582744
 C         -0.9168765270        4.9698446440       -0.1878855699
 H         -0.1102502576        5.6097662216        0.1721052216
 H         -1.7163516363        5.6317702993       -0.5267500727
 C         -1.4778086600        4.1521878088        0.9803205829
 H         -1.5461098282        4.8109730279        1.8491310984
 H         -2.4902446639        3.8232864612        0.7342962065
 C         -0.6813368083        2.9056324834        1.3670079215
 H         -1.0710805226        2.5252149304        2.3141570991
 H         -0.8585087493        2.1100041188        0.6385956357
 C          0.8404249983        3.1213855761        1.4871819831
 H          1.0896523776        4.1774793508        1.3907332565
 H          1.1869365182        2.7691707783        2.4610542868
 H         -0.6891317270        4.6820191518       -2.3000997638
 H         -0.8805911788        3.1767763973       -1.4113273656
 H          1.6033909666        4.8176109189       -0.9070353811
 H          1.4636658291        3.9851280031       -2.4582571012
 O          2.2232089201        1.9202812737       -1.7893421820
 C          2.7230562275        0.6690558756       -1.4827247146
 O          3.1990830410        0.0573581715       -2.4622771161
 O          2.0059352522        0.6525932364        2.0736203717
 C          3.1742428820       -1.2078107805        0.0248719783
 C          2.0530707085       -2.1619471792       -0.3212964170
 C          2.2734577198       -3.2664745724       -1.1351863681
 C          1.2241402110       -4.0911367228       -1.5001104095
 C         -0.0656768523       -3.8126596056       -1.0865074369
 C         -0.2942084531       -2.7156709017       -0.2626826277
 C          0.7673430087       -1.9196992315        0.1393118696
 H          0.5724214888       -1.0789140503        0.7879586912
 N         -1.5893489592       -2.3947802043        0.1729256031
 S         -1.9699637671       -0.7574546617        0.3673171563
 O         -1.3576135949        0.0276248735       -0.6816381214
 O         -1.6782617068       -0.3816806382        1.7258999780
 C         -3.7384365595       -0.8074064986        0.1373737447
 C         -4.2655570786       -0.5372654616       -1.1112209107
 C         -5.6384843966       -0.6070209145       -1.2894970104
 C         -6.4562770650       -0.9474891229       -0.2224820199
 C         -5.9129544649       -1.2147878182        1.0254569226
 C         -4.5412916265       -1.1450421846        1.2106670501
 H         -4.0730993017       -1.3332353919        2.1627341022
 H         -6.5518941251       -1.4757919226        1.8534918953
 H         -7.5240628242       -1.0017521228       -0.3639725164
 H         -6.0631475559       -0.3956508090       -2.2575999573
 H         -3.5908026351       -0.2684657996       -1.9084598333
 H         -2.3115365091       -2.8984158711       -0.3236643992
 H         -0.8908119093       -4.4341017926       -1.3996596656
 H          1.4078565006       -4.9440800604       -2.1355558394
 H          3.2696802355       -3.4612495801       -1.5030875013
 H          3.9705848693       -1.3527123717       -0.7197290561
 C          3.7391212740       -1.5219026565        1.3944047248
 C          4.7571318667       -2.6131550369        1.5297207260
 C          5.1656908527       -1.1811988208        1.6978871662
 H          5.4060349366       -0.8195383948        2.6859661694
 H          5.7451252296       -0.7196139871        0.9114216022
 H          4.7191593447       -3.2431308681        2.4049124936
 H          5.0690275444       -3.1244516976        0.6317521905
 H          3.0193969690       -1.4009238739        2.1930658017
