  62
        -98.93915319
 C         -1.2533048599       -1.0180002992        0.4509644105
 C         -2.2276459101       -0.9432689287       -0.5714263093
 C         -3.1456640897        0.2160206316       -0.5349476389
 C         -2.9905884693        1.1429072513        0.4271108613
 C         -3.8155856289        2.3776382915        0.6735987218
 C         -5.1661534489        2.0617897717        1.3382803619
 C         -5.8953399694        0.8464734020        0.7707860217
 H         -5.2465855996       -0.0282852782        0.8456780814
 H         -6.7668680393        0.6571604921        1.4032133718
 C         -6.3860101395        0.9939460525       -0.6674710582
 H         -6.9421829898        0.0861311928       -0.9152655784
 H         -7.0820043393        1.8341079327       -0.7233688979
 C         -5.3012568596        1.1923597825       -1.7276468683
 H         -5.7743893998        1.0558561429       -2.7045789783
 H         -4.9199192193        2.2095760924       -1.7097667281
 C         -4.1510742399        0.1921803422       -1.6611173887
 H         -4.5617989802       -0.8237695177       -1.6734094689
 H         -3.5636730800        0.2756021222       -2.5833833088
 H         -5.8053414287        2.9427072619        1.2590993022
 H         -4.9832879788        1.8722897313        2.3988921018
 H         -3.2392553587        3.0135158911        1.3493786419
 H         -3.9574672889        2.9226155317       -0.2548747281
 O         -2.0232899792        1.0397171708        1.3838913412
 C         -1.1533954495       -0.0295228295        1.4324271107
 O         -0.3444234893        0.0114864500        2.3827663906
 H          2.2282282301       -1.1908391903        1.0344933899
 C          2.0801256799       -1.3970424500       -0.0149330201
 C          0.8695999897       -1.9144658496       -0.4555681401
 C          0.7078213894       -2.1766881392       -1.8121175901
 C          1.7388648793       -1.9266226792       -2.6989022102
 C          2.9409757896       -1.4018349397       -2.2578886102
 C          3.1112685498       -1.1314606201       -0.9053730602
 N          4.3237881401       -0.6071604005       -0.4281051502
 S          4.3153597506        0.6160652092        0.7133557401
 O          5.6426203407        1.1866794188        0.6284368000
 O          3.9345845806        0.0924944489        1.9992595100
 C          3.1180366008        1.7911062497        0.1092125206
 C          3.5009876209        2.6115930598       -0.9351872093
 C          2.5805656511        3.4991849102       -1.4660760089
 C          1.2932062311        3.5468146704       -0.9515307787
 C          0.9265765111        2.7194243503        0.0975070012
 C          1.8444102309        1.8308129499        0.6369083808
 H          1.5746560008        1.1806644097        1.4546768407
 H         -0.0720454489        2.7495358804        0.5054135513
 H          0.5722054513        4.2338345608       -1.3658014984
 H          2.8655627211        4.1485852804       -2.2779928288
 H          4.5145621508        2.5528166096       -1.2976081294
 H          5.0085338300       -0.4234265005       -1.1473363603
 H          3.7435750595       -1.2052688097       -2.9522358403
 H          1.6024903491       -2.1360278089       -3.7490030702
 H         -0.2381106808       -2.5530094788       -2.1669706801
 C         -0.2380559802       -2.1472753695        0.5445611401
 H          0.2020872899       -2.0654083299        1.5480085700
 C         -0.8590329006       -3.5228749693        0.4083287898
 C         -0.0855041309       -4.7131475596        0.8864816794
 C         -1.2951870207       -4.2520198295        1.6416418297
 H         -2.1924810808       -4.8509270892        1.5964972596
 H         -1.1462601304       -3.7614922998        2.5931212198
 H         -0.1501234512       -5.6310482895        0.3228171791
 H          0.8846107792       -4.5338883100        1.3260803893
 H         -1.4704833208       -3.6391281889       -0.4761108802
 O         -2.3601690904       -1.7984652284       -1.4853743295
