  62
        -98.94124439
 C         -2.7711452765       -0.2975867242       -0.1958667421
 C         -2.1139346081        0.5914124125       -1.0805644817
 C         -2.1710678980        2.0142071379       -0.7214564086
 C         -2.7931183316        2.4032563430        0.4048366966
 C         -2.9193935833        3.8151084124        0.9080410387
 C         -1.6891289306        4.3084348732        1.6822707250
 C         -0.4584396891        4.6168408096        0.8282836837
 H         -0.7429933575        5.2734329049        0.0053178993
 H          0.2375288562        5.1697295640        1.4622388159
 C          0.2629423364        3.3792949701        0.2761366034
 H          1.3401586253        3.4955419164        0.4207658055
 H         -0.0284307952        2.4923328235        0.8453089232
 C          0.0273500677        3.1178050702       -1.2118219578
 H          0.4730024885        3.9227074207       -1.8010091359
 H          0.5301445299        2.1837766207       -1.4767910916
 C         -1.4486047134        2.9851239142       -1.6070505202
 H         -1.4947750914        2.6002659649       -2.6288844377
 H         -1.9350445831        3.9594814308       -1.5770525783
 H         -1.9793512478        5.2227320068        2.2052787808
 H         -1.4281145296        3.5621535095        2.4367598418
 H         -3.1205276603        4.4873753485        0.0734368042
 H         -3.7788496879        3.8291736975        1.5816545902
 O         -3.4102824114        1.5211963776        1.2345055115
 C         -3.4008922725        0.1645165240        0.9651172768
 O         -3.9918527509       -0.5268760001        1.8193225421
 O         -1.4967056944        0.2462216878       -2.1250594858
 C         -2.7866681172       -1.8100128336       -0.3749537362
 C         -1.5041954417       -2.3862771551        0.1769040777
 C         -1.5082579632       -3.2852346528        1.2361862370
 C         -0.3185616696       -3.7361808250        1.7829174285
 C          0.8970527645       -3.2886145810        1.2964825862
 C          0.9079476769       -2.3937620826        0.2354629853
 C         -0.2823734978       -1.9654569728       -0.3281150517
 H         -0.2628868371       -1.2622543798       -1.1478790034
 N          2.1441107229       -1.8786751821       -0.2348623837
 S          2.8211622819       -0.8184590406        0.9046162255
 O          3.3978400585       -1.6137906311        1.9594133050
 O          1.8407007952        0.1628033868        1.3160732947
 C          4.1103550366       -0.0464940342       -0.0528648307
 C          3.8379613397        1.1430009990       -0.7007663280
 C          4.8278557299        1.7265421821       -1.4755554611
 C          6.0649304908        1.1103225190       -1.5911171689
 C          6.3225113137       -0.0846089922       -0.9356284230
 C          5.3371788446       -0.6728747882       -0.1587024924
 H          5.4923822808       -1.5958238709        0.3747643626
 H          7.2862947246       -0.5587002724       -1.0273643687
 H          6.8334469476        1.5664455504       -2.1949270893
 H          4.6289799730        2.6559325902       -1.9845477052
 H          2.8636349600        1.5896750993       -0.5758855935
 H          1.9949821117       -1.3546791796       -1.0898453185
 H          1.8301915989       -3.5956122383        1.7402472074
 H         -0.3383918112       -4.4303456491        2.6095796227
 H         -2.4522256640       -3.6083499996        1.6507911117
 H         -3.6140966835       -2.1771117847        0.2469812199
 C         -3.0253620585       -2.2548061429       -1.8039453774
 C         -3.5570233370       -3.6328117905       -2.0535166836
 C         -4.4304571435       -2.4379162331       -2.2890159629
 H         -4.6638329089       -2.1582014792       -3.3052011299
 H         -5.2298877078       -2.2438682294       -1.5885142504
 H         -3.1898399330       -4.1783300499       -2.9090509614
 H         -3.7666092242       -4.2514194382       -1.1939828212
 H         -2.3059028230       -1.8559296163       -2.5061041645
