  62
        -98.94637547
 C         -1.7798917259       -0.7364695082        0.2439803797
 C         -3.0726822678       -0.9568731842        0.7768527303
 C         -3.9830768812        0.1928971042        0.7380990481
 C         -3.5540094545        1.3677847862        0.2418378139
 C         -4.3573430234        2.6370046294        0.1541443305
 C         -5.2570395574        2.7207959137       -1.0865491800
 C         -6.4871097518        1.8126616297       -1.0609796479
 H         -7.0351585375        1.9706396374       -0.1315728132
 H         -7.1363302175        2.1298002670       -1.8795502521
 C         -6.1754848941        0.3189733199       -1.2296862362
 H         -5.1684013533        0.1999628024       -1.6362315014
 H         -6.8657730283       -0.1175758005       -1.9550875437
 C         -6.2903056671       -0.5018313247        0.0549051234
 H         -7.3268468860       -0.5006752735        0.3993455384
 H         -6.0124061412       -1.5341790912       -0.1726593249
 C         -5.3944253473       -0.0112127690        1.1997655213
 H         -5.7948734597        0.9099659080        1.6223597710
 H         -5.3821657311       -0.7781791281        1.9781209840
 H         -5.5978255323        3.7551542457       -1.1725479858
 H         -4.6558311458        2.4946306874       -1.9702572475
 H         -3.6381633756        3.4577310174        0.1132618248
 H         -4.9640390834        2.7504971434        1.0529096583
 O         -2.2929916791        1.5463125783       -0.2341299043
 C         -1.3831893106        0.4991385439       -0.2651138440
 O         -0.2768900437        0.7970196184       -0.7528526758
 O         -3.4432275240       -2.0566877699        1.2675807261
 C         -0.7910986717       -1.8875772113        0.2154394303
 C          0.4624579927       -1.5160896257        0.9666937929
 C          0.3468848022       -1.0785526106        2.2847946689
 C          1.4645997262       -0.7269610755        3.0151496738
 C          2.7240556260       -0.7956875898        2.4438450010
 C          2.8514760491       -1.2353115405        1.1329802296
 C          1.7262849859       -1.6026268816        0.4054514476
 H          1.8599460955       -1.9339069946       -0.6101959895
 N          4.1195931614       -1.3400636060        0.5286549225
 S          4.4293150712       -0.4876048645       -0.8797787429
 O          3.5297832388       -0.9114456768       -1.9198130125
 O          5.8393371735       -0.6967076591       -1.1298083641
 C          4.1543406222        1.2184517258       -0.4370705301
 C          5.2482173518        1.9898620600       -0.0920969189
 C          5.0472740892        3.2969772000        0.3188985616
 C          3.7588929492        3.8061754917        0.3880599160
 C          2.6732594891        3.0168873713        0.0429113319
 C          2.8653412263        1.7080908054       -0.3741944859
 H          2.0266609014        1.0867749030       -0.6468559890
 H          1.6666643270        3.4012057314        0.0932131942
 H          3.5990124189        4.8228321512        0.7113960122
 H          5.8913571441        3.9123866774        0.5856942864
 H          6.2310600358        1.5527116521       -0.1652900602
 H          4.8861545801       -1.1981349837        1.1721666947
 H          3.5999100124       -0.5160416431        3.0096374503
 H          1.3566450050       -0.3905287415        4.0351816270
 H         -0.6381850483       -1.0181580954        2.7274831628
 H         -1.2843964458       -2.7086934424        0.7569645965
 C         -0.5397757702       -2.3313121199       -1.2101300856
 C         -0.1427601413       -3.7471793698       -1.4980656283
 C         -1.5136180463       -3.2640388385       -1.8628223361
 H         -1.7498549870       -3.1164534199       -2.9060918190
 H         -2.3504576297       -3.6018412090       -1.2688201080
 H          0.5674433291       -3.9298877152       -2.2906262442
 H         -0.0491064093       -4.4201456535       -0.6591291117
 H         -0.1106599959       -1.5484563909       -1.8267244814
