  62
        -98.93643957
 C         -1.4666779158       -1.4615174684       -0.3330322835
 C         -1.5935918337       -0.0786861800       -0.6132282045
 C         -2.6903843602        0.6280512302        0.0761702840
 C         -3.4840713561       -0.0383001739        0.9291755269
 C         -4.6241323458        0.4931640351        1.7614638962
 C         -5.6040436978        1.4629540290        1.0846407342
 C         -5.8165607515        1.2342664273       -0.4191529739
 H         -5.3892723152        0.2748655129       -0.7155243707
 H         -6.8883207065        1.1907121544       -0.6216450968
 C         -5.2212904607        2.3486694327       -1.2836441654
 H         -5.7099727702        2.3335812705       -2.2608186194
 H         -5.4495191603        3.3103560019       -0.8189597442
 C         -3.7154264667        2.2577876400       -1.5288422827
 H         -3.4988948468        1.4209283698       -2.1980826557
 H         -3.4020761008        3.1695523484       -2.0428974280
 C         -2.8526445017        2.0802120330       -0.2691085579
 H         -3.2521807570        2.6471743228        0.5685234084
 H         -1.8478410120        2.4542299218       -0.4850603464
 H         -6.5574149728        1.3617033045        1.6060718539
 H         -5.2680539965        2.4870040525        1.2429005400
 H         -4.1999132525        0.9728066392        2.6487240306
 H         -5.1632027983       -0.3941888356        2.1023480678
 O         -3.3189576473       -1.3680961661        1.1829596558
 C         -2.3161405843       -2.0993342079        0.5727077649
 O         -2.2886491863       -3.3029012664        0.9042809347
 O         -0.8429650948        0.5586010599       -1.3941513839
 C         -0.3852151956       -2.3462624437       -0.9308190158
 C          0.8429555902       -2.3671942620       -0.0535547460
 C          1.5629433426       -3.5412693160        0.1377408907
 C          2.6903333295       -3.5494525378        0.9397962638
 C          3.1147291835       -2.3948396430        1.5714290122
 C          2.3899917787       -1.2184079018        1.4036931614
 C          1.2708892628       -1.2118256331        0.5836108638
 H          0.7109288820       -0.2993911938        0.4698150769
 N          2.7661694094       -0.0581554705        2.0833727454
 S          2.3297985641        1.4938764625        1.6606841672
 O          3.0701748079        2.3134480256        2.5975659366
 O          0.8973334284        1.6442726757        1.6839039319
 C          2.9993280228        1.7498989265        0.0278036499
 C          2.1949742519        1.7240048050       -1.0922315006
 C          2.7804647446        1.9258076748       -2.3341383657
 C          4.1450013729        2.1403366365       -2.4367927595
 C          4.9395891706        2.1607583678       -1.2997391329
 C          4.3629661017        1.9653599172       -0.0567216259
 H          4.9396322553        1.9960662397        0.8533817061
 H          6.0013176705        2.3302469168       -1.3792323077
 H          4.5905775043        2.2948133470       -3.4068509467
 H          2.1564167457        1.9102780288       -3.2131654236
 H          1.1350848187        1.5425722607       -1.0014200461
 H          3.6393904438       -0.0990672039        2.5846780916
 H          3.9867898809       -2.4039185352        2.2069138120
 H          3.2417788046       -4.4665719195        1.0807092741
 H          1.2216622130       -4.4546430267       -0.3268372437
 H         -0.8063873750       -3.3649927405       -0.9229617024
 C         -0.0613881530       -2.0000945720       -2.3783468307
 C          1.2096684138       -1.3306536959       -2.7957555098
 C          0.9821208241       -2.7720252390       -3.1307691471
 H          0.7807555974       -3.0402775634       -4.1568395751
 H          1.5532094944       -3.5071677103       -2.5854615861
 H          1.1512639241       -0.5964248479       -3.5836503336
 H          1.9303500556       -1.0884746398       -2.0298302386
 H         -0.9530367519       -1.7258594643       -2.9326049206
