  62
        -98.94140033
 C         -1.5965584097       -0.3601841090        0.3065670503
 C         -2.7338262298       -0.9985215689       -0.2457185496
 C         -3.7833804694       -0.1031687988       -0.7533795302
 C         -3.6110645590        1.2296926611       -0.7181408308
 C         -4.5804100286        2.2644697712       -1.2215797315
 C         -5.6859964886        2.6240939521       -0.2193718318
 C         -6.7598030590        1.5533393325       -0.0216076915
 H         -7.5788249689        2.0193672231        0.5299676781
 H         -7.1529049289        1.2505326922       -0.9926426814
 C         -6.2856308996        0.3156087927        0.7527761692
 H         -5.3588626596        0.5494414627        1.2817029592
 H         -7.0281587898        0.0530869934        1.5098050592
 C         -6.0614970498       -0.9253045378       -0.1113632402
 H         -7.0120134799       -1.2495119476       -0.5410310602
 H         -5.6914218102       -1.7280457976        0.5314340003
 C         -5.0528304096       -0.7271514886       -1.2501737901
 H         -4.8022055798       -1.7081490289       -1.6610541096
 H         -5.4922951392       -0.1190838589       -2.0404971405
 H         -6.1723968182        3.5321042721       -0.5832859124
 H         -5.2233310187        2.8576692124        0.7422707581
 H         -5.0304222585        1.9229535309       -2.1541970514
 H         -3.9956779582        3.1637864309       -1.4262349618
 O         -2.4847764989        1.8048997710       -0.2193574409
 C         -1.4682322992        1.0329319509        0.3157743497
 O         -0.5108037791        1.6937623408        0.7653616095
 O         -2.8914965702       -2.2453136489       -0.3234878990
 C         -0.4234310801       -1.1202567091        0.9049845709
 C          0.5055065500       -1.6082536300       -0.1809285887
 C          0.1491764098       -2.6418612603       -1.0406839383
 C          1.0293591998       -3.0691262011       -2.0176182679
 C          2.2804649100       -2.4913432315       -2.1443819980
 C          2.6422958902       -1.4516315012       -1.2957134184
 C          1.7487522602       -1.0107214505       -0.3300166088
 H          2.0259349604       -0.1928121302        0.3172806809
 N          3.8928895304       -0.8321486917       -1.4150149785
 S          4.7028712904       -0.2564622513       -0.0707936487
 O          6.0873845605       -0.1956803720       -0.4890718685
 O          4.4291930199       -1.0558892607        1.1003813917
 C          4.0931899909        1.4011524690        0.1426429804
 C          3.5867206408        1.7969126697        1.3638448802
 C          3.1340069612        3.0978819000        1.5128786794
 C          3.1986147617        3.9763548094        0.4431627890
 C          3.7144163918        3.5648928887       -0.7765119107
 C          4.1679035014        2.2653794784       -0.9314417600
 H          4.5780541514        1.9098263578       -1.8620503097
 H          3.7613610922        4.2525507382       -1.6057054910
 H          2.8416924220        4.9872640296        0.5617126985
 H          2.7269734612        3.4176643606        2.4586029892
 H          3.5493392405        1.0806866501        2.1700317205
 H          4.5172411004       -1.2492249023       -2.0893109382
 H          2.9717692900       -2.8374799821       -2.8978462277
 H          0.7430986996       -3.8705297713       -2.6820535376
 H         -0.8271030604       -3.0911303699       -0.9468990982
 H          0.1313523301       -0.3840160790        1.5025488506
 C         -0.8403206606       -2.2561043186        1.8190183014
 C          0.1835823991       -2.8427746584        2.7421755818
 C         -0.9366530508       -2.0135808978        3.2935574212
 H         -1.7203431610       -2.5086192573        3.8473474713
 H         -0.7063993805       -1.0217743977        3.6552818808
 H          0.1695199587       -3.9076454084        2.9174039124
 H          1.1760677892       -2.4158567488        2.7240077118
 H         -1.5641900807       -2.9270329585        1.3766118316
