  62
        -98.93257802
 C         -2.1647185597       -1.0813364900        0.2181410393
 C         -1.9305409797        0.0864388502       -0.5496106804
 C         -2.4527228098        1.3490091500        0.0087307599
 C         -3.1287066498        1.3396473497        1.1686813199
 C         -3.7192341798        2.5033445696        1.9253425402
 C         -4.4552464898        3.5785471497        1.1130037004
 C         -5.1721802298        3.0697515300       -0.1462611997
 H         -5.2085133698        1.9791670000       -0.1418424400
 H         -6.2020912098        3.4311741700       -0.1377395097
 C         -4.5170455298        3.5523306304       -1.4429202396
 H         -4.2478586998        4.6045803903       -1.3285083293
 H         -5.2484083397        3.4876484006       -2.2520128296
 C         -3.2824696397        2.7676899105       -1.8864002298
 H         -3.5771174197        1.7734063906       -2.2327046300
 H         -2.8408221797        3.2855305107       -2.7413784296
 C         -2.1998136698        2.5809489502       -0.8115255298
 H         -1.2415663098        2.4158122504       -1.3135456498
 H         -2.1077202898        3.4649584401       -0.1845803796
 H         -3.7537273898        4.3614936998        0.8281411406
 H         -5.1826667699        4.0372214496        1.7848833305
 H         -4.4074613699        2.0516982694        2.6439052000
 H         -2.9168825099        2.9750822694        2.5001209503
 O         -3.3543173098        0.1888393796        1.8640928296
 C         -2.8692910098       -1.0277421903        1.4226823893
 O         -3.1403011798       -1.9862035505        2.1758565791
 H          0.4501949903       -0.7205047599       -0.1237666505
 C          0.7096629103       -1.6908878000        0.2681705193
 C         -0.2445312897       -2.6956640100        0.3294983990
 C          0.1256525203       -3.9391253701        0.8295494087
 C          1.4227725103       -4.1704684802        1.2498546387
 C          2.3723833503       -3.1678642802        1.1831795189
 C          2.0093910103       -1.9151796801        0.6982548892
 N          2.9448507202       -0.8697753900        0.6829588995
 S          2.7526704003        0.4560935902       -0.3397235002
 O          1.7349798802        1.3187894001        0.2043776700
 O          2.5916998103        0.0184424405       -1.7076968703
 C          4.3536438502        1.2163940402       -0.1358000499
 C          4.5731567602        2.0205999399        0.9664626103
 C          5.8253183102        2.5870795799        1.1447453404
 C          6.8324350502        2.3414408801        0.2231745004
 C          6.5969607302        1.5350260904       -0.8801097198
 C          5.3469448703        0.9647317304       -1.0632737100
 H          5.1140362403        0.3396208206       -1.9102854401
 H          7.3801098303        1.3492145306       -1.5972665998
 H          7.8057640402        2.7840837201        0.3641528605
 H          6.0105461701        3.2173470597        1.9995258006
 H          3.7570648702        2.1897919597        1.6496161603
 H          3.9031014802       -1.1886374700        0.7161393395
 H          3.3842598103       -3.3452492702        1.5134864989
 H          1.6979331403       -5.1410232203        1.6335262684
 H         -0.6137710097       -4.7230391701        0.8958125985
 C         -1.6553865897       -2.4606456699       -0.1614520410
 H         -2.3099356597       -3.1739381700        0.3600689688
 C         -1.7231650697       -2.7517801995       -1.6493059111
 C         -1.9195026596       -4.1608514694       -2.1180155014
 C         -3.0274267796       -3.1617457994       -2.2610376012
 H         -3.2719100696       -2.7903237192       -3.2447222911
 H         -3.8798313697       -3.2478487196       -1.6024123412
 H         -2.0305727796       -4.9306142396       -1.3697352016
 H         -1.3985171596       -4.4819914592       -3.0068157415
 H         -1.0783658297       -2.1093710694       -2.2357490909
 O         -1.3158452597        0.1065457005       -1.6487565204
