  62
        -98.93679112
 C         -2.2711993093       -0.7567259394        0.0132575332
 C         -2.4532271713        0.2942854155        0.9374999093
 C         -2.3561441263        1.6667840854        0.4093636971
 C         -2.1135289266        1.8440817408       -0.9019929304
 C         -1.9386611702        3.1324386440       -1.6668978530
 C         -2.9041480872        4.2808115533       -1.3361446076
 C         -2.2421809395        5.4356774140       -0.5822382411
 H         -1.2438658824        5.5917749296       -0.9962013088
 H         -2.8176500692        6.3462149951       -0.7630057603
 C         -2.1364081512        5.2495959144        0.9302845159
 H         -3.1288408572        5.3419999230        1.3765608981
 H         -1.5251306282        6.0656282021        1.3224033280
 C         -1.5279256579        3.9213064025        1.3847138323
 H         -1.1400284265        4.0570929994        2.3967654190
 H         -0.6784044763        3.6490736466        0.7576989162
 C         -2.5380442949        2.7643360364        1.4220712547
 H         -2.4786577985        2.2574357316        2.3903526548
 H         -3.5572508987        3.1540896285        1.3458074744
 H         -3.2871116435        4.6721445724       -2.2799959397
 H         -3.7555845029        3.8985814233       -0.7757522020
 H         -0.9043638463        3.4627407879       -1.5369773767
 H         -2.0421457975        2.8507086734       -2.7174645234
 O         -1.9587033544        0.7971000938       -1.7623574464
 C         -1.9987138194       -0.5158106367       -1.3323768109
 O         -1.8032058744       -1.3595410287       -2.2287478858
 O         -2.6814959877        0.0955057675        2.1637355021
 C         -2.2696482633       -2.1914201009        0.5081993331
 C         -0.9258458518       -2.8126821984        0.2130953541
 C         -0.7661580315       -4.0908083992       -0.3056623973
 C          0.4984307522       -4.5737173257       -0.5966984668
 C          1.6212547105       -3.7943817628       -0.3911612906
 C          1.4728142262       -2.5211924246        0.1491114780
 C          0.2097993291       -2.0534227163        0.4668985122
 H          0.1077734291       -1.0617897067        0.8852423072
 N          2.5912904363       -1.7050475717        0.3954774444
 S          2.4099754385       -0.0327491466        0.2454476552
 O          1.8714449803        0.4860973869        1.4786568954
 O          1.6880353619        0.2987825157       -0.9627296704
 C          4.1216893438        0.4470748547        0.0963031943
 C          4.6596773652        0.6593541727       -1.1588299326
 C          6.0007600072        0.9936270271       -1.2659493014
 C          6.7774493851        1.1054602865       -0.1225150792
 C          6.2231840568        0.8901001334        1.1306548735
 C          4.8828033169        0.5570934031        1.2448118561
 H          4.4046870052        0.3890144921        2.1956480865
 H          6.8292129662        0.9806865644        2.0175407843
 H          7.8206899899        1.3649032852       -0.2087376395
 H          6.4327025998        1.1648649557       -2.2387396983
 H          4.0142421702        0.5679348900       -2.0180333097
 H          3.4234920284       -2.0298018119       -0.0781938285
 H          2.6034777529       -4.1629114286       -0.6449700500
 H          0.6085320117       -5.5654968262       -1.0083975412
 H         -1.6321047915       -4.7029707752       -0.4973870563
 H         -2.3910917227       -2.1271967408        1.6002811611
 C         -3.4357458407       -2.9643871036       -0.0708085119
 C         -4.0482005409       -4.0980069282        0.6950911746
 C         -4.7895649717       -2.8041151159        0.5510900075
 H         -5.6529294025       -2.7702074159       -0.0961571356
 H         -4.8631641162       -2.1553136347        1.4117292183
 H         -4.4075795743       -4.9556105085        0.1466825163
 H         -3.6261782849       -4.3339535085        1.6602103788
 H         -3.3858281748       -3.0389256071       -1.1514013376
