  62
        -98.94792574
 C         -1.1629185375       -1.1069886266       -0.0395194116
 C         -1.6108342925       -0.1295180509        0.8798399071
 C         -2.5739356569        0.8464614482        0.3600972721
 C         -2.9409773623        0.7970430837       -0.9332686100
 C         -3.8821360395        1.7480683695       -1.6218559005
 C         -5.3670446893        1.4044610739       -1.4400419884
 C         -5.9332911597        1.6794169329       -0.0463866859
 H         -5.6992923304        2.7045762586        0.2425444195
 H         -7.0197031700        1.6017030123       -0.1215525632
 C         -5.4422876845        0.7108060131        1.0384306695
 H         -5.0133564927       -0.1761392176        0.5665475890
 H         -6.2910846283        0.3761251136        1.6388805894
 C         -4.4133973471        1.3056066430        1.9996774668
 H         -4.1090218256        0.5250894112        2.7013865046
 H         -4.8716020602        2.1145861236        2.5728211376
 C         -3.1504790527        1.8466332459        1.3163881822
 H         -3.3698378327        2.7820300749        0.8012786807
 H         -2.3996491856        2.0418700353        2.0864293719
 H         -5.5142845316        0.3519463353       -1.6930111619
 H         -5.9289876141        2.0016010759       -2.1619461769
 H         -3.6437982052        1.7013059084       -2.6869083770
 H         -3.6941438304        2.7640291775       -1.2722578539
 O         -2.4661028910       -0.1413244706       -1.7948485003
 C         -1.5729281903       -1.1167752074       -1.3726784433
 O         -1.2274905677       -1.9154813242       -2.2645162727
 O         -1.2165554598       -0.0696543057        2.0759612614
 C         -0.1571018603       -2.1412262236        0.4238983892
 C          1.1483056645       -2.0189093947       -0.3260312643
 C          1.9947656994       -3.1021799709       -0.5348920687
 C          3.2003301084       -2.9327051544       -1.1927901904
 C          3.5998856808       -1.6852040835       -1.6374416794
 C          2.7618810973       -0.5954912337       -1.4322484816
 C          1.5502194097       -0.7724593753       -0.7835215027
 H          0.8975496010        0.0774708635       -0.6607739606
 N          3.1193922228        0.6881096554       -1.8682492602
 S          2.6331231582        2.0318021323       -1.0042266631
 O          1.2369438971        2.3085950037       -1.2368871125
 O          3.5562413082        3.0682033015       -1.4167135830
 C          2.9218135569        1.6086533610        0.7041136271
 C          4.2294138954        1.4117649433        1.1052837913
 C          4.4801117139        1.0310802505        2.4129498674
 C          3.4237636822        0.8447199326        3.2925666258
 C          2.1182692265        1.0528828887        2.8771711577
 C          1.8631733184        1.4418946695        1.5718027650
 H          0.8550047931        1.6036514433        1.2235351715
 H          1.2860776967        0.9014840611        3.5463135949
 H          3.6176051627        0.5375282345        4.3081471129
 H          5.4949709655        0.8746515324        2.7412010315
 H          5.0243296707        1.5717346330        0.3951734838
 H          4.0580476533        0.7782797700       -2.2269717818
 H          4.5416198476       -1.5547303899       -2.1476805672
 H          3.8431828322       -3.7842283006       -1.3556933183
 H          1.7054899655       -4.0806555416       -0.1878981993
 H          0.0429522279       -1.8983097767        1.4795526896
 C         -0.7515880347       -3.5341723792        0.3511448296
 C         -0.4086949180       -4.5667130027        1.3821799051
 C         -1.7686782136       -3.9385290755        1.3750824114
 H         -2.6139277383       -4.5304739637        1.0574853932
 H         -2.0051029342       -3.2201961645        2.1466592492
 H         -0.3212172690       -5.5965317971        1.0699001656
 H          0.2721578177       -4.2822518864        2.1701259656
 H         -0.9133629307       -3.8611244014       -0.6698774342
