  62
        -98.93865908
 C          1.9576205136        1.3781830488        0.3080569216
 C          2.6121310758        0.8229555157       -0.8157589152
 C          3.7960679821       -0.0106150490       -0.5342661583
 C          4.1766679310       -0.1990396690        0.7411285386
 C          5.3107942985       -1.0501646334        1.2416752167
 C          4.8125948062       -2.4596720039        1.6035037487
 C          4.7926186040       -3.4542200005        0.4431625275
 H          5.8188169954       -3.7230300323        0.1840457791
 H          4.2973892931       -4.3603766238        0.8000843082
 C          4.0802756621       -2.9718745232       -0.8235301627
 H          3.8097197838       -3.8519567248       -1.4104431961
 H          3.1496973529       -2.4672322147       -0.5559062998
 C          4.9481312987       -2.0455871254       -1.6886284726
 H          4.9489749442       -2.4102862329       -2.7178638944
 H          5.9798560080       -2.0986331064       -1.3412594828
 C          4.4941067586       -0.5790011972       -1.7393496251
 H          5.3568750452        0.0532122574       -1.9741857799
 H          3.7788532625       -0.4483920046       -2.5577290024
 H          5.4537673008       -2.8682295187        2.3872108021
 H          3.8074817747       -2.3626448416        2.0224833624
 H          6.1131408777       -1.0920053012        0.5113125062
 H          5.6842111958       -0.5702359732        2.1487478938
 O          3.5063110994        0.3432432112        1.7956252792
 C          2.3840642032        1.1298661719        1.6114348073
 O          1.8572825269        1.5358045879        2.6680014117
 O          2.2261570400        1.0058662039       -1.9994736173
 C          0.7276778246        2.2472218886        0.1165469344
 C         -0.3551498923        1.4603033812       -0.5821912476
 C         -1.0814038199        1.9446198214       -1.6615115222
 C         -2.0573988374        1.1633258544       -2.2573102337
 C         -2.3379396466       -0.1055309934       -1.7867107231
 C         -1.6329287406       -0.5906630050       -0.6916586395
 C         -0.6580572577        0.1938520310       -0.0958283202
 H         -0.1079686006       -0.1869423103        0.7565493730
 N         -1.9255974229       -1.8699728863       -0.1899104701
 S         -3.5354023456       -2.2954793487       -0.0205986857
 O         -3.5605057819       -3.2581172397        1.0584873190
 O         -4.0506578857       -2.7571593850       -1.2854656056
 C         -4.3730092891       -0.7943621425        0.4580548693
 C         -3.9726779415       -0.1681204629        1.6218600997
 C         -4.5905761716        1.0147381471        1.9931849074
 C         -5.5939133711        1.5484050671        1.1985760175
 C         -5.9886976676        0.9045865648        0.0363807100
 C         -5.3722521113       -0.2776915604       -0.3411794858
 H         -5.6453051084       -0.8093529290       -1.2380967357
 H         -6.7705201544        1.3207795824       -0.5781516223
 H         -6.0701494133        2.4712858850        1.4895847146
 H         -4.2838372169        1.5161426310        2.8972193882
 H         -3.1923250525       -0.6097509337        2.2212681867
 H         -1.3891765626       -2.1260313582        0.6254017810
 H         -3.0803578723       -0.7328665272       -2.2526701110
 H         -2.6044747743        1.5472633881       -3.1045350438
 H         -0.8761164261        2.9298926150       -2.0456259439
 H          0.3700063397        2.4913735630        1.1276616029
 C          1.0994820910        3.5330780265       -0.5913826260
 C          0.3143874313        4.7849143416       -0.3434516051
 C          1.7005930625        4.6480419616        0.2087588929
 H          2.4948756637        5.2304076569       -0.2335721930
 H          1.8179501310        4.4882579350        1.2710390194
 H          0.1580497979        5.4672303084       -1.1652139584
 H         -0.5127157265        4.7279393423        0.3477035057
 H          1.4954926125        3.3613769835       -1.5854569428
