  62
        -98.93435548
 C          1.8696083157        0.2037924445        0.4358455318
 C          2.5538031697       -0.0362027487       -0.7812902869
 C          4.0005800261        0.2327993318       -0.7964652754
 C          4.5943536728        0.6916411701        0.3182964839
 C          6.0386844189        1.0742604109        0.5246378355
 C          7.1083270546        0.1484248273       -0.0706149616
 C          6.7360765173       -1.3411685909       -0.0967094770
 H          7.5475892782       -1.9174620745        0.3514996995
 H          5.8423572140       -1.5146073292        0.5051081393
 C          6.5086609309       -1.8748903605       -1.5131186386
 H          7.2886227312       -1.4777228363       -2.1664747019
 H          6.6160043191       -2.9622306776       -1.5001940805
 C          5.1414787468       -1.5631897399       -2.1208203547
 H          5.1531186709       -1.8926095797       -3.1627007439
 H          4.3678220110       -2.1438172469       -1.6110477889
 C          4.7174139221       -0.0859863156       -2.0769218942
 H          3.9915426946        0.0790746234       -2.8780091634
 H          5.5670636864        0.5731992279       -2.2381540455
 H          7.3478324289        0.4716659746       -1.0827492530
 H          8.0121149313        0.2874039802        0.5250831058
 H          6.1817617205        2.0851061732        0.1315870914
 H          6.1648631688        1.1300055185        1.6085496739
 O          3.9003143914        0.9121174277        1.4690810574
 C          2.5367979671        0.6701161097        1.5692103856
 O          2.0674762659        0.9162796501        2.6958872975
 O          1.9761145530       -0.4592210615       -1.8198902654
 C          0.3865300808       -0.0961138491        0.4717398012
 C         -0.5012289040        1.1286322403        0.4383677235
 C         -0.0413309379        2.4122932531        0.6986433015
 C         -0.9109970942        3.4891627830        0.6708862965
 C         -2.2485902916        3.3111356611        0.3721205744
 C         -2.7211058502        2.0309082934        0.1032102211
 C         -1.8483430466        0.9547495958        0.1437906930
 H         -2.2224514823       -0.0315214894       -0.0759403633
 N         -4.0752011051        1.8110517942       -0.1781364034
 S         -4.5446919591        0.6331982841       -1.2690207287
 O         -3.6127198862        0.5158279835       -2.3658747221
 O         -5.9011684004        0.9929142243       -1.6222944821
 C         -4.5744720441       -0.8706457358       -0.3164989203
 C         -4.0613396640       -2.0284605836       -0.8671461624
 C         -4.1136491728       -3.2023636393       -0.1317034393
 C         -4.6758498305       -3.1974511405        1.1353918685
 C         -5.1891546345       -2.0268135479        1.6729208318
 C         -5.1427465749       -0.8506989196        0.9418603021
 H         -5.5319542103        0.0764906853        1.3274466484
 H         -5.6241780624       -2.0273554132        2.6593420342
 H         -4.7115478179       -4.1117012378        1.7063416354
 H         -3.7123979086       -4.1126135031       -0.5480139939
 H         -3.6208858570       -1.9843846706       -1.8512188494
 H         -4.6411224215        2.6439141585       -0.2473016430
 H         -2.9220476009        4.1541273979        0.3448902772
 H         -0.5370878404        4.4805710235        0.8784652056
 H          1.0010716292        2.5687549269        0.9309358534
 H          0.1861116986       -0.6648119690       -0.4485023456
 C          0.0144183720       -0.9627636465        1.6639714638
 C         -1.0188045269       -2.0394122666        1.5354412460
 C          0.4275031734       -2.4032789369        1.6807438432
 H          0.7701435372       -2.8296155975        2.6112135652
 H          0.9468856790       -2.7794799982        0.8109448160
 H         -1.6829429355       -2.2161051493        2.3672934233
 H         -1.4767639203       -2.1929772698        0.5698883087
 H          0.0703293484       -0.4244332971        2.6022136851
