  62
        -98.94448847
 C         -2.6467915849       -1.2948231966        0.1138616722
 C         -2.5678571411       -0.2931560395       -0.8839656422
 C         -3.5480702330        0.7982815988       -0.7756877252
 C         -4.4491133652        0.7843876276        0.2229388598
 C         -5.4672099634        1.8567550919        0.4783402701
 C         -4.9225655612        2.9212907559        1.4408104709
 C         -3.5377609835        3.4470722845        1.0620294408
 H         -3.2708620013        4.2157393415        1.7905705919
 H         -2.8062556790        2.6417288361        1.1651528765
 C         -3.4461130726        4.0328930844       -0.3538825237
 H         -4.4453248596        4.2635254850       -0.7253475279
 H         -2.8911745997        4.9723341183       -0.3086741932
 C         -2.7240671349        3.1402010569       -1.3652844124
 H         -1.7566695820        2.8310947728       -0.9586401667
 H         -2.5235658324        3.7351216770       -2.2607421956
 C         -3.4863588918        1.8857056452       -1.8111127841
 H         -4.4898655177        2.1631568085       -2.1403011417
 H         -2.9502870311        1.4585789700       -2.6638419340
 H         -5.6310630465        3.7508221499        1.4746644891
 H         -4.8604294313        2.4852867106        2.4404270138
 H         -5.7484373473        2.3162186328       -0.4671146789
 H         -6.3489648352        1.3938054257        0.9244004874
 O         -4.5030369187       -0.2009695479        1.1543806187
 C         -3.5970238135       -1.2464112278        1.1374962865
 O         -3.7410875394       -2.0638826224        2.0679785545
 H          0.3835158118       -1.6720151412       -1.4907933757
 C          0.6144087393       -1.5389686840       -0.4459346788
 C         -0.3103296560       -1.9109577242        0.5167925723
 C         -0.0017486977       -1.6941247175        1.8569869772
 C          1.2044879173       -1.1251679667        2.2197413351
 C          2.1230059759       -0.7485888963        1.2546518197
 C          1.8157751343       -0.9428953758       -0.0846257382
 N          2.7329633040       -0.5465682533       -1.0735272217
 S          3.3941921604        0.9930735735       -0.9604956305
 O          2.5183096476        1.9058687820       -0.2627248973
 O          3.7549094429        1.3522339713       -2.3148290276
 C          4.8854844208        0.7349092143       -0.0201102675
 C          5.1262439044        1.4854931603        1.1138455796
 C          6.2977749890        1.2714052186        1.8236318087
 C          7.2035498198        0.3162712780        1.3885981123
 C          6.9485183908       -0.4272866475        0.2458314435
 C          5.7801008360       -0.2170977911       -0.4686705602
 H          5.5460040747       -0.7703875329       -1.3626682401
 H          7.6553906340       -1.1690172651       -0.0895540545
 H          8.1134896393        0.1506446975        1.9434480987
 H          6.4975629806        1.8491665281        2.7117919013
 H          4.3904409334        2.2132167970        1.4177706537
 H          2.4026536141       -0.7187398753       -2.0126793013
 H          3.0598576138       -0.2920441916        1.5293401208
 H          1.4318477191       -0.9680866661        3.2632626417
 H         -0.7299897157       -1.9646791114        2.6092306746
 C         -1.6682736493       -2.4595147623        0.1522189011
 H         -2.0050611078       -3.1060474447        0.9731677054
 C         -1.6827733910       -3.2604388575       -1.1329102721
 C         -1.0482492626       -4.6176603374       -1.1539969160
 C         -2.5394349784       -4.4860834658       -1.2197714705
 H         -3.0367524111       -4.7005767349       -2.1538721121
 H         -3.1166385568       -4.7549795884       -0.3471288750
 H         -0.6115485377       -4.9760502489       -0.2341752125
 H         -0.5197802969       -4.9271148601       -2.0426607101
 H         -1.6068064302       -2.6500211807       -2.0238009115
 O         -1.7340546807       -0.3002746598       -1.8285411051
