  62
        -98.93925164
 C         -2.1400892708       -0.7620811490        0.5348491301
 C         -1.9259321404        0.0085432403       -0.6308330002
 C         -1.8884236797        1.4728154204       -0.4583933310
 C         -2.0781320796        1.9854735411        0.7712943488
 C         -2.1373113289        3.4384472513        1.1576136980
 C         -3.4694364186        4.1029356617        0.7605102077
 C         -4.0315594587        3.6784258513       -0.5949948422
 H         -5.0440118885        4.0826394318       -0.6761525924
 H         -4.1141178692        2.5902439214       -0.6229609516
 C         -3.2404254084        4.1579178104       -1.8096837324
 H         -3.2653938679        5.2496973104       -1.8424741929
 H         -3.7504151986        3.7852872302       -2.7014848622
 C         -1.7790404386        3.7135193596       -1.8705465121
 H         -1.1829110384        4.2552220997       -1.1410083723
 H         -1.3925571484        3.9914848890       -2.8557196522
 C         -1.5515268093        2.2104599996       -1.7304127413
 H         -0.4889175494        1.9979269690       -1.9099101812
 H         -2.0950888995        1.6894136295       -2.5266256811
 H         -3.3355969680        5.1854882317        0.7790280171
 H         -4.2104234987        3.8406067125        1.5191503978
 H         -1.2887800286        3.9627048707        0.7267384078
 H         -2.0354809189        3.4814697718        2.2442532180
 O         -2.3110716200        1.2035248518        1.8649920692
 C         -2.3082017106       -0.1754628783        1.7859703498
 O         -2.4736248109       -0.7594135277        2.8784924801
 O         -1.7787373906       -0.5024325403       -1.7731497700
 C         -2.0957108916       -2.2765988591        0.4523866609
 C         -0.7930825917       -2.7066484400       -0.1797196388
 C         -0.6941843322       -3.7511157305       -1.0899278783
 C          0.5266384077       -4.0669895613       -1.6610588181
 C          1.6639162580       -3.3448529717       -1.3510868784
 C          1.5788208085       -2.3114073112       -0.4242693289
 C          0.3628122586       -2.0198050404        0.1688456909
 H          0.3090158989       -1.2137067300        0.8869830405
 N          2.7184202888       -1.5677625516       -0.0640865792
 S          2.5267466796        0.0736081587        0.2862782099
 O          2.0347348796        0.2100136396        1.6356920198
 O          1.7616002299        0.7319279685       -0.7483542804
 C          4.2316518098        0.5946744578        0.2229044997
 C          5.0524936496        0.2817284580        1.2901570899
 C          6.3879133698        0.6478663673        1.2384013998
 C          6.8780038702        1.3170766165        0.1264744595
 C          6.0419729404        1.6263111464       -0.9356732107
 C          4.7052658302        1.2611155271       -0.8910003106
 H          4.0159312103        1.4844249570       -1.6895554807
 H          6.4246594506        2.1492833058       -1.7972065809
 H          7.9176651003        1.6013759460        0.0888111994
 H          7.0399331396        0.4108831074        2.0635151800
 H          4.6231596093       -0.2310254214        2.1350530502
 H          3.4890122088       -1.7102633323       -0.7038346391
 H          2.6088457679       -3.5746633024       -1.8195436582
 H          0.5887224373       -4.8754086217       -2.3737523077
 H         -1.5756964424       -4.3076456502       -1.3636267681
 H         -2.1150644018       -2.6401415985        1.4910879411
 C         -3.3170134918       -2.8029377988       -0.2738423389
 C         -3.9020917724       -4.1340764484        0.0885662818
 C         -4.6189182718       -2.8731685679        0.4643052611
 H         -5.5252615317       -2.6149784277       -0.0623835891
 H         -4.6137719117       -2.5672783473        1.5006837809
 H         -4.3218452927       -4.7437341986       -0.6973160580
 H         -3.4206869327       -4.6943164982        0.8758077921
 H         -3.3447320116       -2.4924008993       -1.3121491890
