  62
        -98.94049053
 C         -1.2694652601       -1.5915329397        0.0006374709
 C         -2.2206008568       -1.1356010806        0.9392756025
 C         -3.1317310253       -0.0628120514        0.4955563920
 C         -2.9830381106        0.4393615118       -0.7446389055
 C         -3.8171358169        1.5016146637       -1.4104008566
 C         -3.5049744762        2.9310965300       -0.9292147980
 C         -3.1507411495        3.0537203519        0.5512890324
 H         -2.3579428644        2.3424359195        0.7912107961
 H         -2.7507437160        4.0568051340        0.7217727056
 C         -4.3233747485        2.8575576994        1.5093809588
 H         -5.0481747653        3.6601332053        1.3521779306
 H         -3.9404813714        2.9517466865        2.5289483251
 C         -5.0585923445        1.5238013202        1.3903704826
 H         -5.6297945650        1.4836809332        0.4670511129
 H         -5.7837852491        1.4767104399        2.2084033697
 C         -4.1744806691        0.2876041857        1.5291118800
 H         -3.6378212171        0.3403102713        2.4834256936
 H         -4.8231642996       -0.5935606414        1.6117508016
 H         -4.3623107879        3.5681467818       -1.1518786547
 H         -2.6552953851        3.2996485558       -1.5057711210
 H         -4.8689713936        1.2641451765       -1.2719769427
 H         -3.6054935765        1.4395771077       -2.4797379684
 O         -1.9961180706        0.0235939182       -1.5873534395
 C         -1.1320202945       -1.0048147213       -1.2571747643
 O         -0.3105784408       -1.2974130921       -2.1438070303
 O         -2.3168295959       -1.6097630733        2.1052092723
 C         -0.3707414912       -2.7588549071        0.3665251879
 C          1.0776392326       -2.3464795731        0.2978645100
 C          2.0405285689       -3.0364357076       -0.4256079803
 C          3.3508559023       -2.5889958322       -0.4563132837
 C          3.7313014817       -1.4562338864        0.2386189936
 C          2.7764946507       -0.7628424796        0.9722450118
 C          1.4649555124       -1.2088324776        0.9970578087
 H          0.7213727257       -0.6642752642        1.5665634712
 N          3.1573327010        0.3963904798        1.6844472443
 S          3.6759796795        1.6957021831        0.7617613427
 O          4.8942703226        1.3308063127        0.0863359142
 O          3.7604185220        2.8097498344        1.6784666425
 C          2.3686657899        1.9707891088       -0.4177368885
 C          2.3219157401        1.2069128674       -1.5667476714
 C          1.2628959468        1.3807940799       -2.4430195624
 C          0.2758857507        2.3105291642       -2.1559447670
 C          0.3388284214        3.0718181568       -0.9990283730
 C          1.3903377073        2.8963412611       -0.1150653942
 H          1.4775578172        3.4678905141        0.7953054541
 H         -0.4276262155        3.7974573894       -0.7783392398
 H         -0.5493732950        2.4332806938       -2.8397002159
 H          1.1991101707        0.7753651431       -3.3321967951
 H          3.1066091425        0.4939195072       -1.7602164611
 H          2.4438148719        0.7162203889        2.3249112445
 H          4.7435130576       -1.0866831452        0.2128210466
 H          4.0868654568       -3.1322197794       -1.0294223040
 H          1.7659116171       -3.9219331437       -0.9742822102
 H         -0.6087576548       -2.9939898956        1.4146439707
 C         -0.7056833407       -3.9620448116       -0.4897478534
 C         -0.4521848755       -5.3470047219        0.0236117037
 C         -1.8559386542       -4.8355345609       -0.0914247254
 H         -2.4914289445       -5.2372153696       -0.8663721736
 H         -2.3844603519       -4.5776623737        0.8148668079
 H         -0.1254683492       -6.1044719269       -0.6727034864
 H         -0.0276633348       -5.4438720125        1.0113749786
 H         -0.5667716865       -3.7727865138       -1.5481853526
