  62
        -98.94670514
 C         -1.9915015585       -0.9426583295        0.4026104228
 C         -0.7402166933       -1.1211538198        1.0433593453
 C         -0.0737767161       -2.4104191176        0.8054947851
 C         -0.6336167032       -3.3089453051       -0.0223731090
 C         -0.0309675255       -4.6320518594       -0.3948340272
 C          0.8280220459       -4.5232847999       -1.6618615565
 C          1.8399900540       -3.3771214284       -1.6348005315
 H          2.4225832266       -3.4380406334       -2.5573576411
 H          1.3119159572       -2.4199412519       -1.6602578141
 C          2.7902100935       -3.3941617890       -0.4295099323
 H          3.8019949291       -3.1837832238       -0.7828340882
 H          2.8029037376       -4.3873246679        0.0218911263
 C          2.4630493247       -2.3479091566        0.6373032080
 H          2.3107532789       -1.3795240942        0.1535988001
 H          3.3239513085       -2.2552559363        1.3047418494
 C          1.2347777114       -2.6435842322        1.5061288803
 H          1.2900304012       -3.6628920361        1.8939792168
 H          1.2515572825       -1.9489636455        2.3508664205
 H          1.3545095112       -5.4696610380       -1.8018219608
 H          0.1663106865       -4.3725108604       -2.5180797034
 H          0.5723491841       -4.9957675400        0.4347187534
 H         -0.8428222067       -5.3380950286       -0.5791390449
 O         -1.8180987063       -3.0922914464       -0.6493150467
 C         -2.5161610355       -1.9140831053       -0.4548458279
 O         -3.5918349693       -1.8509564089       -1.0866180431
 H         -0.3276272014        1.1900725349        0.1062912828
 C         -1.0415896042        1.7056076251       -0.5128373609
 C         -2.3871675089        1.3843182611       -0.4186243639
 C         -3.2940418008        2.0651954505       -1.2220589625
 C         -2.8566106925        3.0342365058       -2.1078731200
 C         -1.5092021542        3.3248696266       -2.2259020133
 C         -0.5954212547        2.6485053775       -1.4255771459
 N          0.7799004720        2.9118495395       -1.5091636867
 S          1.8978491447        1.6731338566       -1.3496890975
 O          3.0096186862        2.0709072419       -2.1914383952
 O          1.3189714938        0.3852359096       -1.6574268281
 C          2.4483134771        1.7294532053        0.3439423266
 C          1.7962220376        2.4799139984        1.2989588216
 C          2.2763255379        2.4660098452        2.5996899834
 C          3.3922059407        1.7113373077        2.9218025402
 C          4.0449159004        0.9729363472        1.9471416322
 C          3.5707657462        0.9828982907        0.6461938388
 H          4.0514761704        0.4283857135       -0.1444767028
 H          4.9166274173        0.3887400530        2.1952751154
 H          3.7561076875        1.6986461168        3.9371916412
 H          1.7702541412        3.0415853910        3.3581303601
 H          0.9277340140        3.0579637116        1.0298011786
 H          1.0518737331        3.5572261622       -2.2358581562
 H         -1.1647698935        4.0638626228       -2.9333922936
 H         -3.5700449062        3.5568298494       -2.7269388170
 H         -4.3439186806        1.8185773456       -1.1634850196
 C         -2.8413337797        0.3114323140        0.5422527246
 H         -3.8596548554        0.0156787856        0.2538343999
 C         -2.8829785855        0.8564089826        1.9576042749
 C         -4.0508357184        1.6907613456        2.3857386773
 C         -3.8814100778        0.3036213184        2.9276720986
 H         -3.5838179953        0.1805314718        3.9579569458
 H         -4.5482327535       -0.4685758058        2.5715844718
 H         -4.8385906263        1.8592037815        1.6672402568
 H         -3.8718232034        2.5256065059        3.0454888286
 H         -1.9054222762        1.1156089688        2.3416292535
 O         -0.1857668830       -0.2680194290        1.7869242797
