  62
        -98.93881882
 C          1.3717748628        1.4816150104        0.6243142510
 C          2.3531316592        1.2495076591       -0.3678969096
 C          3.2613137365        0.1109877017       -0.1311477198
 C          3.0549730262       -0.7022938892        0.9203044933
 C          3.8375828779       -1.9035049763        1.4063136433
 C          4.7614077536       -2.6692556621        0.4606947145
 C          4.0732766662       -3.3312879802       -0.7313521451
 H          4.8450914142       -3.8094295695       -1.3389850298
 H          3.4090420366       -4.1179774903       -0.3642752511
 C          3.2515046348       -2.4007316581       -1.6210461669
 H          2.8871068355       -2.9879009901       -2.4683984470
 H          2.3774650273       -2.0413913138       -1.0757562673
 C          4.0026570128       -1.1929372796       -2.1785101267
 H          4.9248566060       -1.5196483687       -2.6626891141
 H          3.3665772021       -0.7381117971       -2.9420782302
 C          4.3434446272       -0.0964255249       -1.1514219924
 H          5.2922324960       -0.2945130162       -0.6573726271
 H          4.4455630812        0.8491275703       -1.6911646221
 H          5.2237813401       -3.4613094785        1.0563906110
 H          5.5658502919       -2.0266813519        0.1148763520
 H          4.4346921788       -1.5521242112        2.2554498312
 H          3.0948416748       -2.5929182947        1.8188147792
 O          2.0367895430       -0.4888627767        1.8034946999
 C          1.1916852842        0.5962462645        1.6899553146
 O          0.3263380016        0.6668538410        2.5858202256
 H         -1.9304171564        1.6019224752        1.4240882370
 C         -1.8971706455        1.6232064844        0.3429572597
 C         -0.7821704568        2.1565292097       -0.2891371667
 C         -0.7328925536        2.1425261845       -1.6785974725
 C         -1.7788188595        1.6073665849       -2.4095745670
 C         -2.8878252843        1.0725525948       -1.7761723692
 C         -2.9411706840        1.0784670142       -0.3893006221
 N         -4.0530421254        0.5054201177        0.2696360623
 S         -4.2456192261       -1.1400568130        0.0147024953
 O         -4.7464831713       -1.3513636788       -1.3195246137
 O         -5.0889365224       -1.6049372281        1.0925389053
 C         -2.6054149474       -1.8248642608        0.1652041702
 C         -2.0757055386       -1.9881147940        1.4294358584
 C         -0.7883336941       -2.4815437431        1.5592608712
 C         -0.0560481963       -2.7960254849        0.4255732959
 C         -0.5975118586       -2.6169873742       -0.8377940777
 C         -1.8848007074       -2.1234391337       -0.9729764514
 H         -2.3445434332       -1.9734569081       -1.9360567946
 H         -0.0199279559       -2.8582299104       -1.7159899973
 H          0.9455039791       -3.1834505764        0.5291065940
 H         -0.3569148594       -2.6041951027        2.5397513871
 H         -2.6761682151       -1.7408075000        2.2903530363
 H         -4.0467801271        0.6841350793        1.2646465651
 H         -3.7017178105        0.6345099732       -2.3310493898
 H         -1.7281064159        1.6003167101       -3.4878157658
 H          0.1434228666        2.5235313383       -2.1787269738
 C          0.3737252231        2.6295637587        0.5572583733
 H          0.0018568037        2.7610041356        1.5824890063
 C          0.9623473852        3.9436511086        0.0928423658
 C          0.1844136823        5.2016961806        0.3318485030
 C          1.4343864770        4.9332204852        1.1135515276
 H          2.3161509418        5.5166056885        0.8950537503
 H          1.3365388524        4.6663235021        2.1560584254
 H          0.2049538334        5.9717752618       -0.4237588800
 H         -0.7623698460        5.1143523545        0.8437846959
 H          1.5343860569        3.8701870221       -0.8214074429
 O          2.4986105868        1.9504921434       -1.4024144550
