  62
        -98.93926055
 C         -2.0897179398       -1.0144867093        0.0922393699
 C         -2.7392485199       -0.2661128285        1.0995824993
 C         -3.4344897699        0.9581181311        0.6664502783
 C         -3.3738826198        1.3177420801       -0.6276992420
 C         -4.0421256398        2.4939659296       -1.2845405429
 C         -5.4091847397        2.0905639491       -1.8633638627
 C         -6.5790871798        2.1947183398       -0.8857168129
 H         -6.7953082399        3.2482386099       -0.6965144037
 H         -7.4532910097        1.7639266994       -1.3790001927
 C         -6.3746827299        1.4883017308        0.4568931076
 H         -7.3586422399        1.3123772111        0.8957501777
 H         -5.9142199998        0.5124568407        0.2925184184
 C         -5.5290499100        2.3043129316        1.4458497071
 H         -6.0557061201        2.3756475323        2.3997729070
 H         -5.4267542100        3.3231261513        1.0727536063
 C         -4.1402486300        1.7254408519        1.7517649877
 H         -3.4828355801        2.5343368822        2.0895771871
 H         -4.2160168101        1.0195074525        2.5850333582
 H         -5.3263823596        1.0649996888       -2.2320961119
 H         -5.6274015597        2.7293733484       -2.7214899332
 H         -3.3910277097        2.7996546090       -2.1064337631
 H         -4.1374484099        3.3222685801       -0.5886476135
 O         -2.7007212497        0.5891632294       -1.5603712913
 C         -2.0418690597       -0.5838971803       -1.2338504604
 O         -1.4690732195       -1.1357833210       -2.1913465299
 O         -2.7387247300       -0.6050451476        2.3155050396
 C         -1.3510866397       -2.2843735190        0.4794463410
 C          0.1257364203       -2.0788569591        0.2467137010
 C          0.9062019304       -2.8984976497       -0.5562718283
 C          2.2466420804       -2.6124595497       -0.7537913184
 C          2.8361967203       -1.5150856293       -0.1542393192
 C          2.0655883702       -0.6925192787        0.6576945901
 C          0.7260335902       -0.9821905186        0.8551534502
 H          0.1241797501       -0.3359364481        1.4833560196
 N          2.6608786101        0.4283698218        1.2750049793
 S          3.2814154801        1.5985912510        0.2348487584
 O          3.2749858400        2.8274073116        0.9995951675
 O          2.5683594002        1.6200466801       -1.0223773216
 C          4.9648732202        1.0799062509       -0.0209963010
 C          5.8017310201        1.0184200618        1.0762174491
 C          7.1126747201        0.6077624617        0.8946200696
 C          7.5619838802        0.2698229908       -0.3734468001
 C          6.7103544103        0.3416014199       -1.4653165403
 C          5.3973071503        0.7507022300       -1.2906001407
 H          4.6958340704        0.8158287493       -2.1071758608
 H          7.0610855004        0.0794689592       -2.4505487100
 H          8.5823074303       -0.0509910693       -0.5121375598
 H          7.7783538700        0.5516847724        1.7407161497
 H          5.4127083500        1.2949177525        2.0418344689
 H          2.0528549400        0.8720509923        1.9497040489
 H          3.8783762003       -1.2886972093       -0.3092309993
 H          2.8400598505       -3.2539236102       -1.3872035479
 H          0.4630048805       -3.7532425600       -1.0395784877
 H         -1.5131196698       -2.3971818781        1.5615759910
 C         -1.9249599496       -3.4912773395       -0.2297260382
 C         -1.7562842196       -4.8568460091        0.3645199529
 C         -3.1012872396       -4.1967576391        0.3732538023
 H         -3.8679161296       -4.5750199796       -0.2861716675
 H         -3.4810468698       -3.8180550084        1.3110613719
 H         -1.6010350795       -5.6928851196       -0.3002197865
 H         -1.2221950997       -4.9308772083        1.2995895430
 H         -1.9007855395       -3.3930780103       -1.3088784382
