  62
        -98.93479143
 C         -2.5078077994       -0.4871657254        0.1222576125
 C         -1.9958552885       -1.4373165167       -0.7900071311
 C         -1.0027529516       -2.3931449618       -0.2720919454
 C         -0.6702480109       -2.3385602227        1.0301265470
 C          0.3667874228       -3.1521642092        1.7590716523
 C          1.7557524196       -3.1526843321        1.0977823256
 C          2.1582074520       -4.5213413940        0.5480816670
 H          3.2468566005       -4.5603700895        0.4707130395
 H          1.8517015832       -5.2868103564        1.2640301988
 C          1.5844358313       -4.8538616738       -0.8275595942
 H          2.0703064690       -4.2261433328       -1.5779424179
 H          1.8422532407       -5.8919191419       -1.0509677616
 C          0.0698454316       -4.6835517251       -0.9725447826
 H         -0.2570693807       -5.3306541215       -1.7896397582
 H         -0.4461155671       -5.0197999627       -0.0747973182
 C         -0.3624295145       -3.2548782222       -1.3270712066
 H          0.4886055929       -2.6908541614       -1.7276644245
 H         -1.0996436661       -3.2886583515       -2.1365932946
 H          1.7833263284       -2.3966643144        0.3107118939
 H          2.4883646152       -2.8529265043        1.8493178727
 H          0.4285134869       -2.7114965268        2.7560991395
 H          0.0079328147       -4.1760503326        1.8811995857
 O         -1.2774147713       -1.4824681608        1.8993464963
 C         -2.1262673622       -0.4825469310        1.4634766243
 O         -2.4890514867        0.3103090912        2.3539785940
 O         -2.3321732715       -1.4621876495       -2.0083555424
 C         -3.2921021453        0.6927738036       -0.4292331085
 C         -2.3716873191        1.8898216506       -0.3574668247
 C         -2.7262348677        3.1310178081        0.1515902687
 C         -1.7838621883        4.1424798974        0.2591239961
 C         -0.4661455515        3.9328539994       -0.1064611001
 C         -0.1085917696        2.6996786362       -0.6351012381
 C         -1.0616276349        1.7120127886       -0.7889905519
 H         -0.7578039199        0.7621371251       -1.2097940834
 N          1.2573794417        2.4070793996       -0.9332493605
 S          1.7667750492        0.8879626631       -0.4116226004
 O          1.6569365499       -0.0992803139       -1.4694856207
 O          1.1144720036        0.5912095644        0.8377093263
 C          3.4915795856        1.2319655878       -0.1140255486
 C          3.8014474601        2.0902631398        0.9235455785
 C          5.1297538999        2.4016322952        1.1632206977
 C          6.1224461442        1.8523118710        0.3646205998
 C          5.7967657168        0.9909799317       -0.6713356862
 C          4.4684606403        0.6773239933       -0.9166260822
 H          4.1682572203        0.0113025327       -1.7095938383
 H          6.5698891524        0.5634691724       -1.2892678087
 H          7.1560259070        2.0966812913        0.5525142988
 H          5.3862743595        3.0702662800        1.9691332254
 H          2.9949458609        2.4854855173        1.5194435376
 H          1.5023344671        2.5459570616       -1.9037655461
 H          0.2803239153        4.7002437102        0.0175224319
 H         -2.0776577622        5.0993980712        0.6629035135
 H         -3.7379312045        3.3021981028        0.4823241852
 H         -3.4702680743        0.4565011757       -1.4893075741
 C         -4.6210297541        0.8938677688        0.2612857589
 C         -5.7415729925        1.5808243643       -0.4599599417
 C         -5.8073011237        0.1060067666       -0.2052870348
 H         -6.5023699940       -0.2620718173        0.5339771919
 H         -5.6600920628       -0.5655518917       -1.0385904314
 H         -6.3978268164        2.2262012686        0.1038433613
 H         -5.5565253515        1.9113455678       -1.4708860499
 H         -4.5162538258        1.0575932375        1.3271504355
