  62
        -98.94102356
 C          2.0121139967        0.9017733085       -0.1813390665
 C          2.3247151479        0.1197132399        0.9600908943
 C          2.4265602964       -1.3295135774        0.7595225696
 C          2.1838177701       -1.8370728842       -0.4621610853
 C          2.2616976044       -3.2930052349       -0.8194476051
 C          3.6652302346       -3.6771919777       -1.3082316605
 C          4.7895122109       -3.1960357284       -0.3911470628
 H          5.7309268995       -3.5474989024       -0.8185461703
 H          4.8156994899       -2.1041520872       -0.4058838371
 C          4.6736658707       -3.6797596108        1.0610002646
 H          3.9904838033       -4.5279343294        1.1152514426
 H          5.6533758312       -4.0291011880        1.3932504350
 C          4.2242336723       -2.6048758777        2.0523810476
 H          4.8467748546       -1.7145819008        1.9345995782
 H          4.3853958914       -2.9862539429        3.0641022393
 C          2.7536162016       -2.1789539571        1.9555067302
 H          2.1095401896       -3.0607222168        1.9844618263
 H          2.5254237096       -1.5611326278        2.8290827965
 H          3.7107953056       -4.7633708101       -1.4058768122
 H          3.8176193591       -3.2393414614       -2.2973679306
 H          1.9912683986       -3.8862477666        0.0523088567
 H          1.5392932075       -3.4860842667       -1.6148553174
 O          1.8804442548       -1.0638701586       -1.5334538009
 C          1.7675692639        0.3169341113       -1.4247491233
 O          1.4630882415        0.8720765991       -2.4990043472
 H         -0.4686350644        1.1530394620       -0.7615819651
 C         -0.6527662130        1.9355879997       -0.0409988513
 C          0.3976452981        2.6834488190        0.4664084256
 C          0.1119250052        3.6975490254        1.3745740955
 C         -1.1896215218        3.9388559073        1.7751211613
 C         -2.2282546445        3.1546020604        1.3054635266
 C         -1.9535667815        2.1435742247        0.3925247175
 N         -2.9688571242        1.3116093567       -0.1066396532
 S         -2.5808034454       -0.3198503597       -0.3384418004
 O         -1.6935224600       -0.7722584325        0.7094695235
 O         -2.1288363625       -0.5045659035       -1.6946572748
 C         -4.1891718058       -1.0679463343       -0.1427622950
 C         -4.5611679753       -1.5456421863        1.0998377065
 C         -5.8216513361       -2.1009127941        1.2550435462
 C         -6.6854737755       -2.1653646534        0.1719486704
 C         -6.2980944234       -1.6818712785       -1.0690219328
 C         -5.0386497790       -1.1265356298       -1.2314269460
 H         -4.6880176235       -0.7475336178       -2.1773007276
 H         -6.9706122340       -1.7364003861       -1.9097371169
 H         -7.6655276554       -2.5982742824        0.2950957178
 H         -6.1234803548       -2.4808046858        2.2177208511
 H         -3.8511104476       -1.4829220948        1.9089636631
 H         -3.8480973967        1.4232259125        0.3800772403
 H         -3.2401092337        3.3195080957        1.6427784999
 H         -1.3958360310        4.7286171620        2.4812432889
 H          0.9204070532        4.2856550059        1.7814268326
 C          1.8256934650        2.3879361040        0.0605674284
 H          2.4638960920        2.6277239215        0.9236808441
 C          2.2366496987        3.2743362797       -1.0982763444
 C          2.7620947973        4.6518114651       -0.8303590597
 C          3.6879705634        3.5776455068       -1.3143727405
 H          4.0561547063        3.6213743778       -2.3279656597
 H          4.3932463919        3.1574957749       -0.6120008293
 H          2.4922249609        5.4436375409       -1.5117342734
 H          2.8539821127        4.9667211323        0.1977177036
 H          1.6255605725        3.1299242412       -1.9800347335
 O          2.5135992148        0.6220202572        2.1024332907
