  62
        -98.93917120
 C         -1.9726298518        1.3304638152       -0.0069447881
 C         -2.5805644949        0.6384525907       -1.0787126166
 C         -3.7905867769       -0.1399148548       -0.7631200501
 C         -4.2334212436       -0.1842271143        0.5076723177
 C         -5.4508457908       -0.8502613624        1.1143623294
 C         -6.2243006691       -1.9178234433        0.3446266235
 C         -5.4568585494       -3.2177495167        0.1068321352
 H         -5.3228360128       -3.7236240461        1.0663754186
 H         -6.0679004330       -3.8640979582       -0.5270120996
 C         -4.0769481153       -3.0617930228       -0.5274698127
 H         -3.6466593717       -4.0607494890       -0.6415096966
 H         -3.4230623195       -2.5074572182        0.1495332934
 C         -4.0606353589       -2.3888460612       -1.8988754190
 H         -4.7442890875       -2.9102662279       -2.5715244278
 H         -3.0503398511       -2.4935036740       -2.3041633340
 C         -4.4102527770       -0.8900600639       -1.9070633458
 H         -3.9969372792       -0.4531116794       -2.8208019794
 H         -5.4862154232       -0.7351427553       -1.9293174692
 H         -7.1030601164       -2.1603232936        0.9483480331
 H         -6.5903469370       -1.5150420275       -0.5951439291
 H         -5.1145519752       -1.2698236488        2.0678863850
 H         -6.1407634612       -0.0361987922        1.3631191846
 O         -3.5943325679        0.4782592437        1.5157472520
 C         -2.4550789480        1.2364468815        1.2971920688
 O         -1.9832781582        1.7594722913        2.3233075697
 O         -2.1323857634        0.6689911983       -2.2575213491
 C         -0.7275724038        2.1568481364       -0.2752704194
 C          0.4482595114        1.5540845127        0.4537368911
 C          1.2840946530        2.2716834805        1.2979808922
 C          2.3342904736        1.6420948900        1.9454017932
 C          2.5815198985        0.2955091089        1.7566194765
 C          1.7644242158       -0.4270488048        0.8949583470
 C          0.7133722242        0.2045732406        0.2494446113
 H          0.0748925419       -0.3607392467       -0.4182363986
 N          2.0209989428       -1.7905656720        0.6758033059
 S          3.6093413652       -2.2631456441        0.4427727479
 O          3.5339945020       -3.4488321286       -0.3820664272
 O          4.2591547194       -2.4281192359        1.7193208219
 C          4.3773676951       -0.9241892294       -0.4529747860
 C          3.8313711276       -0.5507429600       -1.6651219457
 C          4.4002273885        0.5042696002       -2.3595816358
 C          5.5009166945        1.1636473386       -1.8337440652
 C          6.0413827966        0.7725137827       -0.6188891993
 C          5.4745242128       -0.2802519214        0.0816086962
 H          5.8592071907       -0.6144732845        1.0314106642
 H          6.8984572260        1.2855042071       -0.2134444927
 H          5.9387653893        1.9868028255       -2.3758506145
 H          3.9800712652        0.8094687602       -3.3045852946
 H          2.9773218133       -1.0846471841       -2.0506544472
 H          1.4035897453       -2.2242556401        0.0058061306
 H          3.3836072883       -0.2112909822        2.2682603154
 H          2.9674843726        2.2089366341        2.6104714165
 H          1.1072777510        3.3216671015        1.4607936053
 H         -0.5425930040        2.0587913827       -1.3552569338
 C         -0.9689603549        3.6155778527        0.0466677785
 C         -0.1786454053        4.6792775765       -0.6533370262
 C         -1.6274259750        4.4839837041       -0.9817748211
 H         -2.3386640027        5.2256626580       -0.6505058851
 H         -1.8829725136        4.0281381592       -1.9273057729
 H          0.1051988709        5.5604579278       -0.0982931384
 H          0.5525346640        4.3604658728       -1.3804017342
 H         -1.2424006434        3.7752619115        1.0833338024
