  62
        -98.94310973
 C          1.9045441173        1.1170909695        0.3461895245
 C          2.4725368730        0.0974801634        1.1541163658
 C          3.8870796233       -0.2081336446        0.9172088052
 C          4.5721260697        0.4879373072       -0.0078278310
 C          6.0279944709        0.3188795529       -0.3479452883
 C          6.3087000483       -0.8094075854       -1.3496241377
 C          6.1568431275       -2.2253299118       -0.7924867069
 H          6.5909299228       -2.9071864187       -1.5264169979
 H          6.7407048398       -2.3189586643        0.1236999067
 C          4.7053871905       -2.6482330793       -0.5252468346
 H          4.0254128634       -1.9785736263       -1.0572504434
 H          4.5389473295       -3.6522624440       -0.9221656323
 C          4.3141350004       -2.6763181788        0.9524925778
 H          3.2583564679       -2.9520203547        1.0221130890
 H          4.8959665027       -3.4414525818        1.4715243806
 C          4.5037208989       -1.3398992677        1.6821523228
 H          5.5636268720       -1.1516117426        1.8528363699
 H          3.9983532210       -1.4026551139        2.6491459940
 H          5.6487377694       -0.6843371532       -2.2110965152
 H          7.3369652635       -0.6876149838       -1.6976874802
 H          6.5993953832        0.1472329766        0.5647139752
 H          6.3545688406        1.2620105883       -0.7912364896
 O          4.0004999325        1.4730156307       -0.7457966606
 C          2.6572800976        1.7996252822       -0.6103732068
 O          2.2897477943        2.7045484839       -1.3832008669
 O          1.8280778903       -0.5210407055        2.0438277822
 C          0.4330579495        1.4311325389        0.5668785514
 C         -0.4063474978        0.7862226712       -0.5103643848
 C         -0.4686757071        1.3008818949       -1.8018662699
 C         -1.2254138030        0.6689118168       -2.7710346225
 C         -1.9485398421       -0.4724221438       -2.4710800057
 C         -1.8911657499       -0.9970164195       -1.1860688531
 C         -1.1196152443       -0.3686147459       -0.2177939374
 H         -1.0692922171       -0.8003901786        0.7710560722
 N         -2.6168809570       -2.1553149159       -0.8482057775
 S         -3.6383672652       -2.0831335466        0.4775117040
 O         -2.8732742663       -2.0579965724        1.6968769781
 O         -4.5401555741       -3.2011034054        0.3083224976
 C         -4.5163917963       -0.5466520256        0.2588533455
 C         -4.0497826010        0.5964098235        0.8753043110
 C         -4.6878676181        1.8007225310        0.6240635260
 C         -5.7756122739        1.8400212207       -0.2343100760
 C         -6.2371988942        0.6815235601       -0.8408177173
 C         -5.5993045470       -0.5239768779       -0.5983753858
 H         -5.9295335289       -1.4487556990       -1.0432583705
 H         -7.0871277345        0.7154387166       -1.5031769156
 H         -6.2672297964        2.7800271061       -0.4288746106
 H         -4.3297021179        2.7021012488        1.0952513146
 H         -3.2046150900        0.5211863835        1.5400459592
 H         -3.0986824699       -2.5755667512       -1.6307111094
 H         -2.5441980030       -0.9605595430       -3.2275844797
 H         -1.2587427813        1.0741986854       -3.7709074034
 H          0.1064902643        2.1793925583       -2.0468774552
 H          0.1814272515        0.9428748593        1.5186518375
 C          0.1543110680        2.9144131678        0.7009965853
 C         -1.0809738084        3.3606105974        1.4214041297
 C          0.2653623065        3.5571324812        2.0496296027
 H          0.6689468714        4.5565626416        2.1116000722
 H          0.5368946766        2.9257070657        2.8835230007
 H         -1.6071897985        4.2271775475        1.0522868080
 H         -1.7196394127        2.5948164300        1.8348169877
 H          0.4826901113        3.4973232193       -0.1488571980
