  62
        -98.94413805
 C          2.4195443786       -1.1242601362       -0.2624192777
 C          2.4264337362        0.1982535657        0.2431973324
 C          3.4962732836        1.0669265163       -0.2651492387
 C          4.3767878379        0.5918146509       -1.1646818406
 C          5.5050982252        1.3626325027       -1.7948396836
 C          6.7781416435        1.4222258796       -0.9395372604
 C          6.6968762525        2.3331246565        0.2860060171
 H          7.7140606475        2.4531894616        0.6640514595
 H          6.3442112143        3.3191696963       -0.0180159766
 C          5.8109480310        1.7939901572        1.4177091010
 H          5.6389555959        0.7256202630        1.2684202018
 H          6.3312108762        1.9045490036        2.3717880050
 C          4.4602005365        2.4966333373        1.5552477837
 H          3.9011529967        2.0122136218        2.3599404291
 H          4.6160826018        3.5407235309        1.8360074661
 C          3.5956599253        2.4564666862        0.2883862786
 H          3.9968913980        3.1373005000       -0.4622689616
 H          2.5852943637        2.7817205785        0.5501943057
 H          7.0348224116        0.4085304351       -0.6237252546
 H          7.5841872723        1.7845473975       -1.5816221261
 H          5.7431591193        0.8530647075       -2.7310158535
 H          5.1723794711        2.3751271722       -2.0254489309
 O          4.3250667989       -0.6820782762       -1.6369289873
 C          3.3551603323       -1.5677804166       -1.1982257767
 O          3.4262384813       -2.7027479120       -1.7109520221
 O          1.5884295509        0.6367303395        1.0747632263
 C          1.3513961219       -2.1108976689        0.1794517865
 C          0.0037975980       -1.5734331167       -0.2367026272
 C         -0.2688161527       -1.4490260913       -1.5971288735
 C         -1.4680863671       -0.9193505615       -2.0310193239
 C         -2.4215211760       -0.4982364434       -1.1191066548
 C         -2.1552730285       -0.6073729874        0.2379552742
 C         -0.9532515472       -1.1551045555        0.6718322930
 H         -0.7594616850       -1.2267281434        1.7303035177
 N         -3.1163607312       -0.1922056381        1.1727732301
 S         -3.9493150844        1.2410103154        0.9219126112
 O         -3.1622094592        2.2087208674        0.1939544199
 O         -4.4056896414        1.6396054193        2.2358948772
 C         -5.3578449879        0.7434066767       -0.0497803783
 C         -5.6745677037        1.4354674954       -1.2022797386
 C         -6.7817134893        1.0425574896       -1.9382718671
 C         -7.5493390284       -0.0296348513       -1.5104343430
 C         -7.2197467525       -0.7126597241       -0.3491600522
 C         -6.1154121758       -0.3236993195        0.3919697999
 H         -5.8281255836       -0.8270256942        1.2998312401
 H         -7.8187640435       -1.5464902326       -0.0201938258
 H         -8.4091860777       -0.3346998194       -2.0857057130
 H         -7.0391860131        1.5731865831       -2.8408844206
 H         -5.0445379031        2.2586649686       -1.5002930859
 H         -2.8119693661       -0.2693141769        2.1324866834
 H         -3.3537556657       -0.0718246571       -1.4513530869
 H         -1.6646461686       -0.8294163572       -3.0887325208
 H          0.4824391925       -1.7658545043       -2.3082518277
 H          1.5396885148       -3.0343496286       -0.3854100934
 C          1.4718613330       -2.4108450617        1.6582992638
 C          0.8479758309       -3.6529812580        2.2181795216
 C          2.3383585908       -3.5494858395        2.1014273223
 H          2.9205930343       -3.4326922867        3.0032418978
 H          2.8348599731       -4.1246815055        1.3335554072
 H          0.4073184258       -3.6119359723        3.2028495858
 H          0.3297512586       -4.3029252781        1.5296820878
 H          1.4752941929       -1.5175790858        2.2721503710
