  62
        -98.94482770
 C          2.0213309956        1.3729957392        0.2767268734
 C          2.6250565776        0.7286454803       -0.8303730889
 C          3.7702907588       -0.1347719458       -0.5145691448
 C          4.1932177329       -0.2504158521        0.7574390004
 C          5.3621814321       -1.0711711839        1.2309137356
 C          5.0283805480       -2.5491560693        1.4758704726
 C          4.8010865018       -3.3822371492        0.2137119553
 H          5.6449327120       -3.2505159374       -0.4641148365
 H          4.7889650295       -4.4304566382        0.5190011388
 C          3.4920129166       -3.0684267937       -0.5247419963
 H          2.8200653824       -2.5210534356        0.1407549739
 H          2.9876786992       -4.0011935270       -0.7875924141
 C          3.6675090960       -2.2686373864       -1.8159207150
 H          2.6763240456       -2.0711505897       -2.2330446396
 H          4.2258169070       -2.8638931518       -2.5417976694
 C          4.3820287901       -0.9229713764       -1.6327620474
 H          5.4450988636       -1.0820859495       -1.4535546887
 H          4.2626617075       -0.3443508353       -2.5518926486
 H          5.8642704786       -2.9853608356        2.0275380844
 H          4.1435753580       -2.6068897980        2.1143329941
 H          6.1780368728       -0.9957180680        0.5117611100
 H          5.6888914822       -0.6313896404        2.1757168651
 O          3.5939085954        0.3995592250        1.7909894815
 C          2.4801970948        1.1985080215        1.5813793337
 O          1.9944993958        1.6875216761        2.6224361174
 O          2.2314084248        0.8645250243       -2.0170658796
 C          0.8123107639        2.2650334685        0.0617544938
 C         -0.2942766623        1.4843113564       -0.6061703134
 C         -1.0403789529        1.9736307493       -1.6698658428
 C         -2.0378190436        1.2016525234       -2.2414784024
 C         -2.3202583455       -0.0634100809       -1.7619584924
 C         -1.5962868572       -0.5528794001       -0.6813845737
 C         -0.6008254996        0.2231480782       -0.1087311978
 H         -0.0356653153       -0.1623930101        0.7315734984
 N         -1.8903746209       -1.8282991649       -0.1710396519
 S         -3.4997138509       -2.2430860847        0.0259638726
 O         -3.5125745455       -3.2043208470        1.1065020102
 O         -4.0397295494       -2.7027412174       -1.2292737828
 C         -4.3187814252       -0.7358433333        0.5173198770
 C         -5.3286214342       -0.2133255138       -0.2645997274
 C         -5.9298343990        0.9738472792        0.1220782428
 C         -5.5097773534        1.6165384030        1.2760186716
 C         -4.4962260244        1.0768620152        2.0534234336
 C         -3.8933432223       -0.1107797555        1.6728167272
 H         -3.1054534169       -0.5570245318        2.2587747598
 H         -4.1698383122        1.5773689229        2.9510415168
 H         -5.9740441639        2.5432717094        1.5740032852
 H         -6.7194869863        1.3947351115       -0.4790889296
 H         -5.6214977106       -0.7442932732       -1.1556486483
 H         -1.3415029048       -2.0881994379        0.6345916796
 H         -3.0782053284       -0.6847137027       -2.2106450828
 H         -2.5998709261        1.5894242246       -3.0770827762
 H         -0.8336654186        2.9558775560       -2.0610455148
 H          0.4666961338        2.5568426327        1.0644148156
 C          1.2151646755        3.5131025402       -0.6960806274
 C          0.4827857359        4.8015407368       -0.4754089970
 C          1.8737995454        4.6299922666        0.0545391573
 H          2.6802914943        5.1667950758       -0.4220279245
 H          2.0068366156        4.4998986935        1.1190078162
 H          0.3356865584        5.4621221781       -1.3164770709
 H         -0.3313588244        4.7993172007        0.2332665959
 H          1.5840080387        3.2936770574       -1.6913632411
