  62
        -98.93970053
 C          1.7837854216        0.5133976628        0.8564117321
 C          2.7952524737        1.2155114852        0.1543293198
 C          4.1683076967        0.7165817244        0.3411043484
 C          4.3899275458       -0.3449089932        1.1356316708
 C          5.7268622874       -0.9897061202        1.3572587126
 C          5.9747408629       -2.1172099295        0.3453628569
 C          5.7024205890       -1.7172343520       -1.1048257737
 H          4.6346239960       -1.5197875465       -1.2251343074
 H          5.9410509010       -2.5805740256       -1.7298605044
 C          6.5014575791       -0.4988994997       -1.5883751036
 H          6.9036834810       -0.7157809500       -2.5802218426
 H          7.3502888647       -0.3261508345       -0.9257397584
 C          5.6835870552        0.7879917364       -1.7108070131
 H          4.7824588331        0.5940085336       -2.2976816616
 H          6.2816468064        1.5194300200       -2.2607815966
 C          5.2655228686        1.4410955805       -0.3874710128
 H          4.8668586453        2.4330376805       -0.6191393517
 H          6.1395517860        1.5629302541        0.2553580316
 H          5.3227901276       -2.9571998112        0.5967243355
 H          7.0098168003       -2.4491257629        0.4454130243
 H          6.5067788053       -0.2352045824        1.2744791779
 H          5.7439046211       -1.4079812235        2.3651523037
 O          3.3956787836       -0.9893623521        1.7994604583
 C          2.0787554018       -0.5827863182        1.6718041966
 O          1.2693017879       -1.2625307894        2.3358013295
 H         -1.8146579445       -0.7953516056        0.7948852938
 C         -1.4339992769       -0.6265554429       -0.2013008767
 C         -0.3370677228        0.2002546913       -0.3952106944
 C          0.1620347181        0.3638662269       -1.6849849644
 C         -0.4256365996       -0.2906377188       -2.7509259300
 C         -1.5234851556       -1.1108085038       -2.5559965567
 C         -2.0264930345       -1.2847338510       -1.2720148086
 N         -3.1258182540       -2.1223961237       -1.0504913394
 S         -4.2090546275       -1.8374338860        0.1810012748
 O         -3.6523004598       -2.2275211483        1.4518300105
 O         -5.4029894093       -2.5465368383       -0.2280551754
 C         -4.5245200444       -0.0807239185        0.1670270560
 C         -4.5242376753        0.6109957862        1.3610537295
 C         -4.8039615412        1.9688752400        1.3519635972
 C         -5.0720624171        2.6101032597        0.1526485614
 C         -5.0679112539        1.9016442270       -1.0389923228
 C         -4.7970826988        0.5429238746       -1.0348177785
 H         -4.7968813542       -0.0323828191       -1.9460175781
 H         -5.2739684706        2.4035923960       -1.9704076044
 H         -5.2811660551        3.6678736597        0.1473414314
 H         -4.8044310016        2.5200435351        2.2787134616
 H         -4.2965006786        0.0763133959        2.2697631983
 H         -3.5642750219       -2.4978676970       -1.8775491948
 H         -1.9803575297       -1.6245577302       -3.3880246964
 H         -0.0281619533       -0.1585398135       -3.7458883593
 H          1.0145337288        1.0079787520       -1.8367506394
 C          0.3109654936        0.8863503150        0.7798104470
 H         -0.1382579566        0.4655257346        1.6934606938
 C          0.0770497424        2.3916797595        0.8073501602
 C         -0.5627019784        3.1545431642       -0.3105282168
 C         -1.3197741819        2.9170658964        0.9586071047
 H         -1.4917266910        3.7465968586        1.6272607409
 H         -2.1217557202        2.1941723237        0.9337056556
 H         -0.8672515856        2.6139920606       -1.1922554994
 H         -0.1851369907        4.1447070253       -0.5145014454
 H          0.8530313382        2.9119766400        1.3585415657
 O          2.5871895481        2.2055645669       -0.5915626495
