  62
        -98.94122153
 C         -2.5252354316       -0.2741426667       -0.0255366620
 C         -2.1103415786       -1.2395458880       -0.9694771455
 C         -1.4307087606       -2.4369415717       -0.4442472222
 C         -1.2542252809       -2.5613444849        0.8845517467
 C         -0.6336620746       -3.6641654260        1.7181993657
 C          0.0712547570       -4.8392958824        1.0486040344
 C          1.4219249381       -4.4895286604        0.4198270615
 H          2.1490157607       -4.3570031405        1.2247602247
 H          1.7500073968       -5.3327868277       -0.1915123835
 C          1.4519560672       -3.2194272716       -0.4274975090
 H          2.4873656163       -3.0386405285       -0.7323132913
 H          1.1513513608       -2.3575062410        0.1725422506
 C          0.6059490623       -3.2524153192       -1.6979132259
 H          0.7821099595       -2.3089317597       -2.2239668211
 H          0.9388826614       -4.0686086663       -2.3436384031
 C         -0.9074265881       -3.3922825642       -1.4787832637
 H         -1.4084491634       -3.1297994797       -2.4158250607
 H         -1.1754975722       -4.4186398779       -1.2402459912
 H          0.2543599398       -5.5826916840        1.8290960921
 H         -0.5899749394       -5.3030246513        0.3223145415
 H         -1.4485044528       -4.0523205430        2.3393365258
 H          0.0631807069       -3.1658805860        2.4000512213
 O         -1.7072732965       -1.6174690451        1.7614484558
 C         -2.2860665094       -0.4359548450        1.3372813155
 O         -2.5600349421        0.3600697112        2.2569399595
 O         -2.3014447374       -1.1076941208       -2.2107111749
 C         -3.0905539110        1.0480922633       -0.5169312750
 C         -2.0957709628        2.1261105476       -0.1587727622
 C         -2.4173400427        3.3049191644        0.4995130043
 C         -1.4181611594        4.1900254727        0.8698725245
 C         -0.0880574171        3.9114854022        0.6149728842
 C          0.2404065306        2.7436737905       -0.0656036600
 C         -0.7641941191        1.8844912779       -0.4726496015
 H         -0.4982063141        0.9824822238       -1.0048385861
 N          1.5755606270        2.4086374789       -0.3549804599
 S          1.9649821985        0.7602292313       -0.3300517615
 O          1.6868951978        0.2070501186       -1.6312959714
 O          1.3428019511        0.1151388999        0.8038615476
 C          3.7309379127        0.8526684170       -0.0971376758
 C          4.2591729922        0.6918021564        1.1695147911
 C          5.6304218368        0.7985524771        1.3429799233
 C          6.4449810113        1.0668531565        0.2532099628
 C          5.9003850841        1.2247064945       -1.0127345346
 C          4.5306187131        1.1171807599       -1.1931545772
 H          4.0617517177        1.2212866913       -2.1576596421
 H          6.5368271659        1.4299757444       -1.8582299065
 H          7.5113446908        1.1504419970        0.3911234355
 H          6.0562244315        0.6722366001        2.3253075472
 H          3.5862128174        0.4770910850        1.9844458027
 H          2.2412747388        2.9587821310        0.1709146833
 H          0.6893503797        4.5858908125        0.9403696631
 H         -1.6789814015        5.0995790555        1.3896517499
 H         -3.4450687013        3.5215613190        0.7409949275
 H         -3.1328010922        0.9620032523       -1.6130948265
 C         -4.4849615230        1.2953284580        0.0135957860
 C         -5.4351526802        2.1673213648       -0.7502697443
 C         -5.6518074680        0.6856108954       -0.7018673432
 H         -6.4715921778        0.3006132508       -0.1144047238
 H         -5.4405512391        0.1064537796       -1.5890185301
 H         -6.1115869604        2.8009475317       -0.1970183691
 H         -5.0831129248        2.5970976441       -1.6758486051
 H         -4.5187790956        1.3206893441        1.0967014927
