  62
        -98.94487802
 C         -2.6428387327        0.3149444826        0.0019294161
 C         -2.4499240911        1.4307713491        0.8493886862
 C         -1.7700712467        2.5816356461        0.2476337670
 C         -1.3811238599        2.5272913903       -1.0395681309
 C         -0.6307692520        3.5998592743       -1.7806957519
 C          0.8857442536        3.5423952272       -1.5448772440
 C          1.3490077509        4.0579675061       -0.1808792243
 H          2.4293855174        4.2034074156       -0.2443242904
 H          0.8993249381        5.0327919545        0.0126787583
 C          1.0471330796        3.1049138809        0.9844259127
 H          0.8472080797        2.1070162324        0.5846539325
 H          1.9278813772        3.0257938984        1.6274329213
 C         -0.1176577475        3.5375902039        1.8758205713
 H          0.1415710380        4.4661322418        2.3898758514
 H         -0.2747837890        2.7657629633        2.6340497520
 C         -1.4440631166        3.7464191792        1.1343130960
 H         -1.4096652618        4.6670317857        0.5526383253
 H         -2.2409760484        3.8300213262        1.8777520964
 H          1.3618353895        4.1452669675       -2.3219077902
 H          1.2140516733        2.5070752646       -1.6722179503
 H         -0.8218558687        3.4365679478       -2.8433942549
 H         -1.0122688799        4.5832433088       -1.5036788933
 O         -1.6383686546        1.4590003973       -1.8387125166
 C         -2.2190420778        0.3099340387       -1.3283504093
 O         -2.3238685982       -0.6224944198       -2.1492361714
 O         -2.8073306893        1.4530417219        2.0595433310
 C         -3.1736688246       -0.9786630420        0.5981444577
 C         -2.0708818445       -2.0047873469        0.4913981881
 C         -2.2344823985       -3.2824257923       -0.0257780432
 C         -1.1405721051       -4.1138384243       -0.2051766350
 C          0.1368138296       -3.6881330476        0.1119941122
 C          0.3028830560       -2.4255357164        0.6611700269
 C         -0.7932085987       -1.6089779924        0.8685847745
 H         -0.6461081276       -0.6174474133        1.2807637007
 N          1.6190671373       -1.9373951901        0.9174123333
 S          2.1753020842       -1.1498276129       -0.4828944135
 O          1.4224369044        0.0652604078       -0.7081447907
 O          2.1838878707       -2.1142859716       -1.5528186466
 C          3.8492983242       -0.7500492567       -0.0158836023
 C          4.7674146533       -1.7794269659        0.0643677674
 C          6.0648139375       -1.4895856709        0.4545543219
 C          6.4196116505       -0.1831356567        0.7577052223
 C          5.4865923123        0.8387823867        0.6725389912
 C          4.1863525043        0.5552923368        0.2836738176
 H          3.4285573872        1.3179121734        0.1983214820
 H          5.7645962322        1.8537609293        0.9067412832
 H          7.4303939884        0.0403367206        1.0605302180
 H          6.7936808125       -2.2810800012        0.5210036905
 H          4.4460758624       -2.7761060215       -0.1878454591
 H          1.5986043443       -1.2366826864        1.6500192212
 H          1.0013100989       -4.3030771423       -0.0761065778
 H         -1.2842704815       -5.0979919659       -0.6247495058
 H         -3.2165804362       -3.6189073796       -0.3161677142
 H         -3.3559893068       -0.7620662756        1.6613363809
 C         -4.4727133536       -1.4055428026       -0.0472618699
 C         -5.4470626439       -2.2534208526        0.7135685241
 C         -5.7570300336       -0.8121934230        0.4464500704
 H         -6.5233094102       -0.5720509456       -0.2749786500
 H         -5.6960471476       -0.1131484654        1.2677016586
 H         -6.0055664096       -3.0043913748        0.1757266213
 H         -5.1824784989       -2.5360526146        1.7211867990
 H         -4.3716968052       -1.5674220540       -1.1144562291
