  62
        -98.93763381
 C         -2.6223525342       -1.1283683379        0.2127159478
 C         -2.7276720047       -0.2663640899       -0.9045056645
 C         -3.5533200372        0.9396050187       -0.7181859950
 C         -4.1522055381        1.1556412108        0.4654392366
 C         -5.0624287055        2.2919141380        0.8592773661
 C         -4.6469015355        3.7085730610        0.4363749267
 C         -3.1318026169        3.9501544351        0.3658089648
 H         -2.8910289143        4.8549130622        0.9273598350
 H         -2.5975958271        3.1236847486        0.8383963514
 C         -2.6219830359        4.1372355939       -1.0655394967
 H         -3.3212927192        4.7815355936       -1.6027829941
 H         -1.6608943478        4.6558674253       -1.0303748379
 C         -2.4130485790        2.8508879854       -1.8642221919
 H         -1.5513599063        2.3038256925       -1.4711546754
 H         -2.1710305666        3.1297724194       -2.8923929489
 C         -3.6074285389        1.8830198666       -1.8849824019
 H         -4.5512607927        2.4211383120       -1.9252690857
 H         -3.5195385773        1.2613784098       -2.7799483868
 H         -5.0910300008        4.3959117435        1.1583042434
 H         -5.0872057770        3.9433858523       -0.5316738636
 H         -5.1273823464        2.2389440599        1.9487483704
 H         -6.0609315360        2.0796843134        0.4665773609
 O         -4.0204063382        0.2964232096        1.5170586065
 C         -3.2490907345       -0.8498504851        1.4246798388
 O         -3.1962273980       -1.5222941292        2.4759255909
 O         -2.1649900288       -0.4910084332       -2.0063535711
 C         -1.7771123059       -2.3843391582        0.1181538426
 C         -0.3539805883       -2.0353427838       -0.2484519923
 C          0.4007371323       -2.7745844927       -1.1497542532
 C          1.7079650466       -2.4155978121       -1.4304191265
 C          2.2901518857       -1.3181597115       -0.8240600361
 C          1.5494760191       -0.5790225881        0.0891960107
 C          0.2442514291       -0.9472999260        0.3753695010
 H         -0.3288726455       -0.3721889060        1.0939925822
 N          2.1293768916        0.5458270085        0.7047670490
 S          3.5994893147        0.3323882546        1.4909932977
 O          3.7380014358       -1.0155350004        1.9925426386
 O          3.6599877884        1.3930233005        2.4732008367
 C          4.8137649904        0.6416442530        0.2265600660
 C          4.7573092053        1.8432763339       -0.4520884817
 C          5.7028374597        2.1029058596       -1.4312856256
 C          6.6849104540        1.1639961283       -1.7107548826
 C          6.7299284800       -0.0360570569       -1.0177663360
 C          5.7859395982       -0.3030195027       -0.0382313159
 H          5.7766556428       -1.2243959379        0.5218508562
 H          7.4940880123       -0.7644761567       -1.2364870506
 H          7.4193266959        1.3690602325       -2.4735642593
 H          5.6705160596        3.0346186485       -1.9728080441
 H          3.9801554047        2.5465245420       -0.2028739848
 H          1.4895241968        1.0553333452        1.2971065316
 H          3.3042741333       -1.0299615427       -1.0476974528
 H          2.2802343156       -2.9968161323       -2.1371333493
 H         -0.0361668809       -3.6313064926       -1.6358513205
 H         -1.7674398638       -2.8221970286        1.1279646472
 C         -2.4193924548       -3.3721959102       -0.8343707417
 C         -2.2664821445       -4.8464995704       -0.6153370995
 C         -3.5837512987       -4.1824838800       -0.3524683208
 H         -4.4018428161       -4.3666489578       -1.0324109481
 H         -3.8928031404       -4.0414588944        0.6734801345
 H         -2.1835942023       -5.4904183495       -1.4779237529
 H         -1.6845202224       -5.1690146651        0.2349859526
 H         -2.4528670483       -3.0034318140       -1.8529883141
