  62
        -98.94025284
 C         -2.0092904063       -1.1725747218       -0.4387476538
 C         -1.5537704136        0.0313323959       -1.0244920618
 C         -2.3619437944        1.2383475280       -0.7666334347
 C         -3.4408202182        1.1599379779        0.0291568812
 C         -4.4360463413        2.2333760222        0.3964003769
 C         -3.9050524615        3.6448179533        0.6711282337
 C         -2.5406190078        3.6972030672        1.3738378721
 H         -2.2605698149        2.7044152447        1.7320287372
 H         -2.6141899578        4.3482573039        2.2472316424
 C         -1.4250370429        4.2354317168        0.4755554222
 H         -0.6042719078        4.5833290527        1.1078406551
 H         -1.8024527269        5.0968745524       -0.0807999929
 C         -0.8372976807        3.2175713711       -0.5001182426
 H         -0.2877866524        2.4582724703        0.0629565385
 H         -0.1127700724        3.7377440847       -1.1324841406
 C         -1.8596093214        2.5040880367       -1.4013583929
 H         -1.3468997820        2.1985873735       -2.3174944892
 H         -2.6774879299        3.1687306034       -1.6700454412
 H         -4.6523249518        4.1455264629        1.2894418396
 H         -3.8464497942        4.2022755885       -0.2625347269
 H         -4.9420888307        1.8548090795        1.2882023962
 H         -5.1854247543        2.2829878848       -0.3996689663
 O         -3.8215226851       -0.0129583241        0.6125744562
 C         -3.1297756175       -1.1890073037        0.3954873531
 O         -3.6108649826       -2.1786035673        0.9856152118
 O         -0.5355600813        0.1224271407       -1.7594714509
 C         -1.3178163260       -2.5174824371       -0.6096778563
 C         -0.2294709479       -2.6789181271        0.4255811223
 C         -0.2635374874       -3.7339279930        1.3292132941
 C          0.7151618196       -3.8595114530        2.2988604961
 C          1.7266104970       -2.9225912030        2.3981964415
 C          1.7695409024       -1.8608374882        1.4995038201
 C          0.8106032447       -1.7625568844        0.5026307488
 H          0.8486501036       -0.9415271603       -0.1928739336
 N          2.7853089926       -0.8996864738        1.5900959395
 S          2.4910273898        0.7376382899        1.3424252197
 O          3.2954249033        1.4033523402        2.3490529118
 O          1.0796535329        1.0308084858        1.3639279261
 C          3.2308511678        1.0484208166       -0.2476735886
 C          2.4674284456        1.1285707077       -1.3934830935
 C          3.1062266955        1.3471391061       -2.6056955094
 C          4.4844059863        1.4800281554       -2.6534189194
 C          5.2374613158        1.3987237523       -1.4912479136
 C          4.6071051446        1.1805061376       -0.2782071457
 H          5.1511739281        1.1245179567        0.6500452796
 H          6.3098427656        1.5038730414       -1.5283168135
 H          4.9731830888        1.6490993455       -3.6000962785
 H          2.5146888394        1.4074503912       -3.5053980773
 H          1.3953987243        1.0153051201       -1.3439282296
 H          3.4095853735       -1.0317971207        2.3725474556
 H          2.4771740392       -3.0045437526        3.1701468106
 H          0.6797111710       -4.6833632593        2.9956611232
 H         -1.0751216651       -4.4451573799        1.2812088691
 H         -2.0881704132       -3.2724982640       -0.3987274730
 C         -0.7797031070       -2.7640921497       -2.0050069836
 C         -0.5919579952       -4.1761004949       -2.4688348649
 C         -1.6876735550       -3.3349191461       -3.0504467428
 H         -1.5884251685       -2.9821197973       -4.0657946298
 H         -2.7062177592       -3.5528599101       -2.7626385435
 H          0.2632871541       -4.4047047220       -3.0857638188
 H         -0.8689060364       -4.9682902987       -1.7896839911
 H         -0.0555667256       -2.0275682089       -2.3249616980
