  62
        -98.93935901
 C         -1.7279500415       -1.5878831886       -0.3644284669
 C         -0.6537448875       -1.7297165970       -1.2776492080
 C          0.5154174807       -2.5087878353       -0.8372568492
 C          0.5089965383       -3.0250342824        0.4050863033
 C          1.6201123688       -3.7971641949        1.0612131506
 C          2.7449603283       -2.8814458745        1.5882510854
 C          3.0122007589       -1.6270538834        0.7557069940
 H          2.0714006119       -1.0899747274        0.6210122730
 H          3.6582639897       -0.9683098776        1.3441622014
 C          3.6876391195       -1.8591194222       -0.5953204986
 H          3.7019357677       -0.9037381871       -1.1258991081
 H          4.7235401528       -2.1594602386       -0.4187070682
 C          3.0469628794       -2.9153769237       -1.4930064285
 H          3.6138221761       -2.9347850646       -2.4285750037
 H          3.1575482429       -3.8978873938       -1.0415158945
 C          1.5917240856       -2.6615693835       -1.8829913222
 H          1.5386038720       -1.7476546591       -2.4827135383
 H          1.2708680509       -3.4742910678       -2.5469846775
 H          3.6616248666       -3.4663289170        1.6805165377
 H          2.4565395753       -2.5415018366        2.5856659483
 H          1.1832326927       -4.3332959408        1.9062515463
 H          2.0047506471       -4.5349077212        0.3613669007
 O         -0.5360290350       -2.8618442029        1.2576707800
 C         -1.6664715832       -2.1286363349        0.9206462594
 O         -2.5112949597       -2.0715700151        1.8327131160
 H         -1.4948777746        0.5065942686        1.1190650020
 C         -1.7220387075        1.1819725255        0.3079456723
 C         -2.4531193433        0.7300515013       -0.7810278797
 C         -2.7362560443        1.6205995331       -1.8097816230
 C         -2.2883074819        2.9285746218       -1.7489123680
 C         -1.5183681631        3.3611197347       -0.6835614499
 C         -1.2239335738        2.4758811139        0.3468735381
 N         -0.4045571616        2.8538693329        1.4288498320
 S          0.9697287542        1.9386346069        1.7240979175
 O          0.6056914829        0.5844267467        2.0456447609
 O          1.6866825954        2.6732965442        2.7435899926
 C          1.8910102909        1.9961819486        0.1970887719
 C          1.4710655973        1.2335583322       -0.8744285863
 C          2.1590644051        1.3278457637       -2.0738992492
 C          3.2541397548        2.1711161338       -2.1808872533
 C          3.6671382153        2.9267974798       -1.0938603503
 C          2.9765126948        2.8456735232        0.1044769466
 H          3.2597621166        3.4143181855        0.9753977378
 H          4.5210098063        3.5795705665       -1.1774120494
 H          3.7874290518        2.2362853893       -3.1161061934
 H          1.8227415594        0.7391012852       -2.9130844222
 H          0.6226369761        0.5756468059       -0.7700237079
 H         -0.1619672664        3.8352055489        1.4356252051
 H         -1.1401279917        4.3716006511       -0.6513546193
 H         -2.5179701681        3.6121002729       -2.5517528445
 H         -3.2915137877        1.2764929160       -2.6696310658
 C         -2.8795158271       -0.7168006745       -0.8420417772
 H         -3.0176502780       -0.9680550465       -1.9068932889
 C         -4.2018547959       -0.9714090016       -0.1392416442
 C         -4.7419983713       -0.0702280807        0.9260556075
 C         -5.3898391783       -0.1005720066       -0.4240293513
 H         -6.3577340048       -0.5681074986       -0.5214574310
 H         -5.2431377799        0.7551556640       -1.0651103380
 H         -5.2446058433       -0.5310330446        1.7624372963
 H         -4.1614014756        0.7980638438        1.1983753050
 H         -4.3938270828       -2.0310382514       -0.0103279153
 O         -0.6728580695       -1.2103188489       -2.4279903289
