  62
        -98.94022036
 C         -2.4904079665       -1.1496744153        0.0074619836
 C         -2.6162069544       -0.0042921027       -0.8148506907
 C         -3.9843736492        0.5012610950       -0.9997744701
 C         -5.0108032389       -0.1420174542       -0.4139923277
 C         -6.4434678851        0.3017379910       -0.4679884034
 C         -6.7821464648        1.2250064276        0.7110768487
 C         -5.7775862793        2.3587996938        0.9174701746
 H         -6.1342141976        2.9600219005        1.7566310758
 H         -4.8151791379        1.9342587642        1.2125847945
 C         -5.5766567321        3.2604482349       -0.3084839532
 H         -5.5837090016        4.3023803775        0.0182387097
 H         -6.4080831532        3.1327424435       -1.0025670542
 C         -4.2582620842        3.0358480948       -1.0513770476
 H         -4.1203247340        3.8595897421       -1.7568072066
 H         -3.4262774377        3.0689959147       -0.3431536541
 C         -4.1572230078        1.7292731766       -1.8485323642
 H         -5.0253398171        1.6280865737       -2.5029424177
 H         -3.2603407088        1.7891816995       -2.4721117639
 H         -6.8118744267        0.6242720701        1.6230262226
 H         -7.7768526784        1.6432615702        0.5469953886
 H         -6.6235387306        0.8162195604       -1.4097601057
 H         -7.0799445886       -0.5832674671       -0.4194985065
 O         -4.8512433266       -1.2548034218        0.3479623591
 C         -3.5914521221       -1.7769481233        0.5896318392
 O         -3.5830247965       -2.7824829175        1.3286641341
 H          1.4290700826       -0.9057162975       -0.4434209589
 C          1.0353942178       -0.3872761505        0.4143977537
 C         -0.2273597410       -0.6809644214        0.9017437502
 C         -0.6913689844        0.0158244939        2.0154063793
 C          0.0855645604        0.9866281289        2.6159377236
 C          1.3475935988        1.2760333770        2.1270804595
 C          1.8203052759        0.5870969820        1.0169682748
 N          3.0834423948        0.8824287416        0.4806174764
 S          3.9905444875       -0.3560293598       -0.2179635797
 O          3.5406049674       -0.5694878108       -1.5701254998
 O          3.9948151288       -1.5158092425        0.6454951382
 C          5.6016859169        0.4088518276       -0.2365382644
 C          5.8851654268        1.3263450258       -1.2308804573
 C          7.1233296593        1.9485264738       -1.2348724676
 C          8.0522471286        1.6452267904       -0.2502879656
 C          7.7544318868        0.7207992187        0.7395039297
 C          6.5171836527        0.0957996153        0.7502762887
 H          6.2442244142       -0.6345038749        1.4949677078
 H          8.4799299727        0.4846195811        1.5011688023
 H          9.0154960958        2.1304097348       -0.2565193827
 H          7.3594045357        2.6656881003       -2.0044392007
 H          5.1355082325        1.5230844853       -1.9796270086
 H          3.6458407100        1.4604199869        1.0898742308
 H          1.9560749953        2.0346846885        2.5954502872
 H         -0.2905368172        1.5193301911        3.4766446396
 H         -1.6757565768       -0.2160919533        2.4005788856
 C         -1.1164119571       -1.7328011968        0.2834705107
 H         -1.2656343437       -2.5308540135        1.0262806771
 C         -0.5422111367       -2.3455741437       -0.9762581925
 C          0.4650628486       -3.4506432309       -0.8830143939
 C         -0.9280122145       -3.7433428935       -1.3515904843
 H         -1.0843485556       -3.9727597314       -2.3949026819
 H         -1.5932847853       -4.2698921742       -0.6826004899
 H          1.2714820674       -3.4731348945       -1.6011790683
 H          0.7528793640       -3.7823122710        0.1035698387
 H         -0.4317472730       -1.6244858929       -1.7787880770
 O         -1.6400663492        0.5699540767       -1.3644755332
