  62
        -98.93811298
 C         -2.6270093194       -1.0118533650        0.5196204757
 C         -2.8439648683        0.1932942036        1.2383972574
 C         -4.0939458408        0.9049330095        0.9568587551
 C         -4.9620308724        0.3945755524        0.0649073183
 C         -6.2977081600        0.9783641349       -0.3080119006
 C         -6.2246150028        2.0733902691       -1.3807372871
 C         -5.6457876322        3.4076095220       -0.9084312936
 H         -5.8543235979        4.1416068346       -1.6893542019
 H         -6.1701019781        3.7316991774       -0.0089045845
 C         -4.1335211551        3.3834448033       -0.6454339034
 H         -3.6933910662        2.5063996640       -1.1260918230
 H         -3.6706712695        4.2618189477       -1.1009468992
 C         -3.7459796738        3.3833652477        0.8334418852
 H         -2.6565304809        3.3268477279        0.9007439017
 H         -4.0644414080        4.3204595136        1.2954948806
 C         -4.3316416221        2.2174368420        1.6406579538
 H         -5.3977475974        2.3721852586        1.8056189072
 H         -3.8277201405        2.1835300903        2.6096338873
 H         -5.6376966823        1.6990345832       -2.2227483008
 H         -7.2423367846        2.2487295688       -1.7370890526
 H         -6.8983662220        0.1538820250       -0.6981411383
 H         -6.7862264011        1.3728006291        0.5834981747
 O         -4.7210867332       -0.7621675495       -0.6032781982
 C         -3.5483827981       -1.4824522253       -0.4166411503
 O         -3.4775954877       -2.5004900761       -1.1321103303
 O         -2.0314717448        0.6449941835        2.0896187060
 C         -1.3359822796       -1.7558581456        0.8172605548
 C         -0.2818501302       -1.4463361577       -0.2197827646
 C         -0.3873242616       -1.9073799160       -1.5277382868
 C          0.5953627680       -1.6098844532       -2.4544801602
 C          1.6978405777       -0.8517496705       -2.1013113581
 C          1.8127942287       -0.3857584270       -0.7986695306
 C          0.8267462963       -0.6897446198        0.1323441573
 H          0.9111902901       -0.3157741669        1.1440253685
 N          2.9197477170        0.4017796902       -0.4361394118
 S          4.4326899542       -0.0757497841       -1.0190654044
 O          4.5908692764        0.4449662895       -2.3540263256
 O          4.5886495681       -1.5057514345       -0.8768160935
 C          5.5243406024        0.7829445309        0.0970577457
 C          5.8132218949        2.1128714013       -0.1434727150
 C          6.6494012695        2.7849668543        0.7337234632
 C          7.1792504534        2.1205301224        1.8299947696
 C          6.8807180442        0.7855266254        2.0575937497
 C          6.0439082299        0.1075831146        1.1851594381
 H          5.7928845189       -0.9327545441        1.3171029939
 H          7.2967836318        0.2708325280        2.9086862876
 H          7.8320173902        2.6453781598        2.5095180116
 H          6.8863314301        3.8220980407        0.5593212711
 H          5.3877475020        2.5851845053       -1.0134435966
 H          2.9476227506        0.5915760894        0.5562638339
 H          2.4719239185       -0.6201156098       -2.8153942782
 H          0.5026691368       -1.9732547774       -3.4672653559
 H         -1.2529573208       -2.4841004965       -1.8146828308
 H         -0.9889944299       -1.3435768397        1.7746120772
 C         -1.5223465770       -3.2507074583        0.9839381820
 C         -0.4862554005       -4.0289638207        1.7360148213
 C         -1.8387447188       -3.8016633362        2.3404606878
 H         -2.5214365684       -4.6350313786        2.4103518415
 H         -1.9210280802       -3.1006955444        3.1584034006
 H         -0.2357336052       -5.0199986881        1.3902855684
 H          0.3506560997       -3.4824374690        2.1441005398
 H         -1.9920595212       -3.7270661390        0.1339319765
