  62
        -98.93790228
 C         -2.1859194079       -0.9619582546       -0.3277938207
 C         -2.8854365588       -0.4814063927        0.8099672550
 C         -3.3724359548        0.8995048151        0.7436407977
 C         -3.1078072181        1.6450752027       -0.3440984137
 C         -3.4963647987        3.0839702689       -0.5502773862
 C         -4.9276625215        3.2801121855       -1.0685642171
 C         -6.0318577837        3.0113880888       -0.0454727124
 H         -5.8291071964        3.5795559995        0.8628463793
 H         -6.9617156537        3.3950130198       -0.4697985465
 C         -6.2230528049        1.5289144232        0.3038766308
 H         -7.2875773526        1.2851535422        0.2875795917
 H         -5.7408267808        0.9107542429       -0.4568123559
 C         -5.6878465521        1.1267446874        1.6781927141
 H         -6.2522820838        1.6436405517        2.4572925736
 H         -5.8428099734        0.0524697127        1.8058782304
 C         -4.1952528040        1.4165305099        1.8848714754
 H         -4.0330640852        2.4866341705        2.0145822349
 H         -3.8658935101        0.9010580470        2.7904643673
 H         -5.0739077916        2.6384607745       -1.9404546618
 H         -5.0133575350        4.3172651948       -1.4006042672
 H         -3.3661032740        3.6328891792        0.3830442150
 H         -2.8016145891        3.4889995211       -1.2894393871
 O         -2.4120277171        1.1606135023       -1.4045837198
 C         -1.9361047297       -0.1455699961       -1.4311489706
 O         -1.3219685198       -0.4251221460       -2.4787608568
 H          0.4578305158       -0.9735187909       -1.1001380654
 C          0.7015988481       -1.5888192367       -0.2455855649
 C         -0.2765097246       -2.4039830939        0.3084226555
 C          0.0568778879       -3.1820448745        1.4100396956
 C          1.3336589163       -3.1388004767        1.9446483023
 C          2.3018186526       -2.3181238069        1.3941084416
 C          1.9774163242       -1.5395490592        0.2920132244
 N          2.9575680273       -0.6736522443       -0.2611587872
 S          3.1741823138        0.7467246247        0.6366355473
 O          3.2400097848        0.4007769349        2.0332199398
 O          2.1720792136        1.7238692074        0.2601105041
 C          4.7779073077        1.2706813518        0.0638574862
 C          4.8682900701        2.2124455300       -0.9422479594
 C          6.1221866908        2.5838074214       -1.4020212219
 C          7.2571748980        2.0066164739       -0.8533158948
 C          7.1498203886        1.0612858739        0.1559756706
 C          5.8993326965        0.6865708846        0.6201656916
 H          5.7667301215       -0.0365590212        1.4075813156
 H          8.0347935994        0.6162166444        0.5812678779
 H          8.2313486353        2.2975463216       -1.2133107013
 H          6.2077988657        3.3200705212       -2.1850309960
 H          3.9593985614        2.6410190997       -1.3336353221
 H          2.6912114768       -0.3872595231       -1.1958737872
 H          3.2914473905       -2.2562727351        1.8149285541
 H          1.5744049790       -3.7451412723        2.8045242152
 H         -0.6997023975       -3.8064994107        1.8624439458
 C         -1.6755812443       -2.3915100448       -0.2533273278
 H         -2.3298524797       -2.8835312511        0.4838159536
 C         -1.8077899343       -3.1558726798       -1.5627867729
 C         -0.6396215370       -3.5949465582       -2.3889926787
 C         -1.4302919512       -4.6068836563       -1.6191236061
 H         -2.0699800738       -5.2882498970       -2.1588774610
 H         -0.9704397612       -5.0316091279       -0.7394825059
 H         -0.7457399985       -3.5539067433       -3.4622451704
 H          0.3527820584       -3.3532867869       -2.0423986481
 H         -2.6964612978       -2.8624869391       -2.1122932248
 O         -3.0937184145       -1.1829619294        1.8359592526
