  62
        -98.93599114
 C         -2.3931417422       -1.1345098743       -0.0811544826
 C         -3.5089910963       -0.8953069912        0.7576012734
 C         -4.5436208899        0.0019778161        0.2236682827
 C         -4.3790525212        0.5339747318       -1.0012610153
 C         -5.3005628121        1.5268398309       -1.6508842997
 C         -5.0666704713        2.9301834455       -1.0557674486
 C         -6.2548546619        3.4889880065       -0.2725682236
 H         -5.9029458223        4.3677351849        0.2719812550
 H         -7.0192305159        3.8226849342       -0.9774804192
 C         -6.9181365834        2.5234707323        0.7144163921
 H         -7.5510330735        3.1248364296        1.3705364636
 H         -7.5835572428        1.8472498320        0.1756582353
 C         -5.9653511520        1.6883725314        1.5795309117
 H         -6.3892639592        1.6209556348        2.5835295140
 H         -4.9989360239        2.1836602732        1.6758645651
 C         -5.7511559361        0.2449816560        1.0863485096
 H         -5.6081194530       -0.4033132716        1.9558777423
 H         -6.6481659678       -0.0996206012        0.5644738803
 H         -4.1895764965        2.8847395156       -0.4067441120
 H         -4.8268045700        3.6298578648       -1.8577878978
 H         -5.0791474875        1.5251995604       -2.7182915058
 H         -6.3335698479        1.2174775307       -1.5083632662
 O         -3.2922145700        0.2827192188       -1.7756292544
 C         -2.2705592914       -0.5491889954       -1.3408319483
 O         -1.3407251058       -0.6828484047       -2.1585359697
 O         -3.6338895187       -1.4112377544        1.9007968086
 C         -1.2885541317       -2.0443809845        0.4299331523
 C         -0.0401615809       -1.2226685835        0.6342708908
 C          0.0125680627       -0.3429027606        1.7128140650
 C          1.1229871957        0.4513855572        1.9234226182
 C          2.2031007141        0.3920606724        1.0592720214
 C          2.1603703122       -0.4798057270       -0.0193433270
 C          1.0471280684       -1.2867428119       -0.2217648357
 H          1.0256226078       -1.9528570081       -1.0699058389
 N          3.2438112260       -0.5290415272       -0.9115604743
 S          4.7934792952       -0.6890972381       -0.2939999499
 O          5.5687009263       -1.2810558087       -1.3624988133
 O          4.7909110117       -1.3973497738        0.9652919098
 C          5.3353606242        0.9890623862       -0.0478986110
 C          5.2704547301        1.8583347520       -1.1191581791
 C          5.6985989070        3.1649440092       -0.9473884212
 C          6.1851495225        3.5770672819        0.2844304870
 C          6.2473262749        2.6912510825        1.3491082747
 C          5.8193866349        1.3830193458        1.1841557905
 H          5.8435694881        0.6611034101        1.9849011447
 H          6.6260906616        3.0136241606        2.3057093854
 H          6.5176162919        4.5947870570        0.4150020924
 H          5.6509528960        3.8567989533       -1.7729414982
 H          4.8881124470        1.4989773501       -2.0600555945
 H          3.0958783925       -1.1409928611       -1.7005707599
 H          3.0714774727        1.0114684072        1.2138086498
 H          1.1493292671        1.1261048642        2.7656350649
 H         -0.8353452416       -0.2904573770        2.3819179569
 H         -1.6310612870       -2.3902340359        1.4150890853
 C         -1.0967120786       -3.2485640544       -0.4670733641
 C         -0.3397297759       -4.4362086278        0.0456672288
 C         -1.8230837428       -4.5197080698       -0.1500107633
 H         -2.2030142358       -5.1131906158       -0.9680489630
 H         -2.4552780334       -4.5282985695        0.7256649926
 H          0.3005077535       -4.9756929191       -0.6359725321
 H          0.0387334358       -4.3868793509        1.0556206634
 H         -0.9889552546       -2.9890972685       -1.5136978224
