  62
        -98.94443209
 C          1.7033012475        1.4474873732        0.5595634777
 C          2.6305553354        1.0069352071       -0.4170020523
 C          3.3973437069       -0.1974277162       -0.0662878062
 C          3.1520721191       -0.8453264458        1.0859291601
 C          3.8570986661       -2.0799472864        1.5790949314
 C          3.3058716104       -3.3933168447        1.0069394823
 C          3.6280846845       -3.6503457195       -0.4656927287
 H          4.7024954180       -3.5499754558       -0.6228505533
 H          3.3668984628       -4.6900077248       -0.6735754304
 C          2.8750157219       -2.7433108138       -1.4494853605
 H          2.0295951240       -2.2723733934       -0.9434292307
 H          2.4681476811       -3.3463631486       -2.2640757468
 C          3.7329325231       -1.6484085147       -2.0821674315
 H          3.0948530404       -1.0480815501       -2.7352261846
 H          4.5152984609       -2.0998011991       -2.6963851307
 C          4.3913405544       -0.7052376950       -1.0672594255
 H          5.2143224040       -1.2104089605       -0.5620515454
 H          4.7891273015        0.1566317310       -1.6084619939
 H          2.2238695463       -3.4112915011        1.1522635920
 H          3.7327168258       -4.2079160569        1.5968163396
 H          3.7308708258       -2.0976949368        2.6639957599
 H          4.9219901948       -2.0044621979        1.3568595983
 O          2.2110928422       -0.4221436839        1.9724864726
 C          1.4677501343        0.7188960902        1.7294509717
 O          0.6348391457        0.9829250986        2.6209830593
 O          2.8317827059        1.5703135834       -1.5231434550
 C          0.8123377061        2.6683200586        0.3704512700
 C         -0.4152349280        2.1938870109       -0.3679596254
 C         -0.4054406206        1.9290481273       -1.7333137993
 C         -1.5203626328        1.3872405622       -2.3477549757
 C         -2.6584351247        1.0876134672       -1.6181286916
 C         -2.6734315108        1.3452850799       -0.2540950434
 C         -1.5617744998        1.9049790361        0.3583803464
 H         -1.5691854721        2.0819855139        1.4254994429
 N         -3.8098466794        1.0078694298        0.5065708312
 S         -4.3779762069       -0.5556881186        0.3243769361
 O         -5.2259635240       -0.6239794893       -0.8396912749
 O         -5.0132892263       -0.8842189495        1.5813990002
 C         -2.9360124950       -1.5789253449        0.0701774144
 C         -2.8942451081       -2.4299554863       -1.0156074047
 C         -1.7826314897       -3.2372372300       -1.1945687854
 C         -0.7317838775       -3.1755271797       -0.2926962515
 C         -0.7838904749       -2.3074870363        0.7869642310
 C         -1.8963708900       -1.5040164906        0.9759058241
 H         -1.9481660080       -0.8270911256        1.8142258375
 H          0.0359774954       -2.2387633712        1.4860428699
 H          0.1320312582       -3.8066257088       -0.4323653466
 H         -1.7366712409       -3.9102450501       -2.0353932119
 H         -3.7307128705       -2.4413254107       -1.6953343548
 H         -3.7161319718        1.2350188867        1.4864278792
 H         -3.5288870874        0.6495387903       -2.0794971809
 H         -1.5009026009        1.1841446509       -3.4076059995
 H          0.4922292910        2.1196322376       -2.3003106285
 H          0.4981218651        2.9700341022        1.3789049571
 C          1.4919810167        3.8488013227       -0.2871548983
 C          0.8576706323        5.2006721242       -0.1642593638
 C          2.1258196752        4.8975904534        0.5744031525
 H          3.0435400695        5.3549568648        0.2366144194
 H          2.0733326711        4.7675844227        1.6459081582
 H          0.9019672623        5.8689626912       -1.0103078422
 H         -0.0559521464        5.2753590883        0.4065431780
 H          1.9910302265        3.6083988956       -1.2152341906
