  62
        -98.94201086
 C         -0.6660290267       -1.3683739557        0.0162204737
 C         -1.4132882012       -0.7495820628        1.0427816718
 C         -2.4483400313        0.2131987874        0.6216306830
 C         -2.6248894831        0.4553180367       -0.6910142442
 C         -3.6421955021        1.3009341825       -1.4304018370
 C         -4.7447622065        2.0322083554       -0.6701694591
 C         -5.8593169987        1.1225712672       -0.1492172960
 H         -6.4627421016        0.7988755669       -1.0009763365
 H         -6.5042507867        1.7058736115        0.5111875888
 C         -5.3994276031       -0.1340147710        0.5859704070
 H         -4.7750424420       -0.7400623419       -0.0731213156
 H         -6.2867473336       -0.7263775459        0.8252116016
 C         -4.6442229535        0.1142242765        1.8889037988
 H         -4.4755381673       -0.8544951420        2.3675034558
 H         -5.2572949946        0.7164941514        2.5627421319
 C         -3.2776984190        0.7974030920        1.7300592232
 H         -2.7108700707        0.6332784847        2.6518327416
 H         -3.3900981214        1.8716656287        1.6062249509
 H         -5.1995505270        2.7361441936       -1.3720800070
 H         -4.3190690990        2.6239093579        0.1350222616
 H         -4.1022020278        0.6362558611       -2.1692194212
 H         -3.0637158571        2.0322722313       -2.0012734504
 O         -1.8098797962       -0.0957705081       -1.6380009031
 C         -0.8207085125       -1.0101760490       -1.3212879618
 O         -0.1710095867       -1.4230181347       -2.2989289921
 O         -1.2409119356       -1.0040183054        2.2662154398
 C          0.3282031316       -2.4569911931        0.3774678885
 C          1.7195026608       -2.0667778433       -0.0498265205
 C          2.5075961877       -2.8316380690       -0.8994061865
 C          3.7760205756       -2.4033196213       -1.2502520221
 C          4.2825242452       -1.2129122084       -0.7638644526
 C          3.5051873452       -0.4457809884        0.0980601276
 C          2.2360549791       -0.8763766945        0.4486473280
 H          1.6411975912       -0.2834653856        1.1289692194
 N          4.0020527106        0.7540917023        0.6236421786
 S          2.9910951101        1.9736202248        1.1233586956
 O          3.8351240230        3.1509152219        1.1264653108
 O          2.3875320065        1.6426452962        2.3899572953
 C          1.7326838739        2.1739174377       -0.1257063031
 C          2.0534846386        2.0234372585       -1.4597650193
 C          1.0823357827        2.2759838555       -2.4145508321
 C         -0.1790107702        2.6949236133       -2.0237522094
 C         -0.4863803925        2.8428718487       -0.6806229416
 C          0.4750063643        2.5714956697        0.2787521140
 H          0.2709248994        2.6555703091        1.3347074119
 H         -1.4675597357        3.1673773014       -0.3734474351
 H         -0.9249932822        2.9041843757       -2.7743733052
 H          1.3122184499        2.1467897481       -3.4597891215
 H          3.0440701870        1.7093053578       -1.7452884788
 H          4.8609867257        1.0939643362        0.2186131052
 H          5.2708364242       -0.8786754159       -1.0395581966
 H          4.3770681732       -3.0036810554       -1.9159659637
 H          2.1282038159       -3.7595620644       -1.2931036312
 H          0.3160566154       -2.5091753551        1.4763813720
 C         -0.1344851829       -3.7873841358       -0.1798024130
 C          0.2947993863       -5.0662229710        0.4729045409
 C         -1.1224090565       -4.5971759644        0.6029665689
 H         -1.8946340379       -5.1283595938        0.0668977582
 H         -1.4468212565       -4.2000472319        1.5539461233
 H          0.4942048817       -5.9237897817       -0.1515867678
 H          0.9340995950       -4.9933140762        1.3397001157
 H         -0.2460927629       -3.7733094659       -1.2582239467
