  62
        -98.94082827
 C         -1.9517520311       -1.2564938189        0.5177474708
 C         -1.9327457205        0.0584837212        1.0538637504
 C         -3.0763002500        0.9188051617        0.7256135800
 C         -4.0790369502        0.4173222520       -0.0175294499
 C         -5.3032642897        1.1775144425       -0.4372333203
 C         -5.1069372992        1.8456846020       -1.8047896705
 C         -3.8049973488        2.6380203413       -1.9210815006
 H         -3.7890440485        3.0946352310       -2.9131474307
 H         -2.9615537192        1.9448083609       -1.8746475603
 C         -3.6268476384        3.7269477315       -0.8536251109
 H         -4.5896143483        3.9611894622       -0.3982026611
 H         -3.2687513579        4.6367479412       -1.3401198611
 C         -2.6159333087        3.3801476513        0.2410343793
 H         -2.3898073383        4.2943338714        0.7962241491
 H         -1.6879187488        3.0399646307       -0.2261234805
 C         -3.0655867693        2.3237870619        1.2590337796
 H         -4.0455849392        2.5931556825        1.6580501594
 H         -2.3471250894        2.3245065618        2.0840485597
 H         -5.9556641489        2.5061051124       -1.9919522108
 H         -5.1050972196        1.0692807018       -2.5734021902
 H         -5.5330567294        1.9283648029        0.3163858694
 H         -6.1363591501        0.4754587429       -0.5027558102
 O         -4.0675647608       -0.8450311781       -0.5099077396
 C         -2.9945634012       -1.7018097586       -0.2949593992
 O         -3.1152053017       -2.7962135587       -0.8791859789
 O         -0.9999093403        0.4874337710        1.7829182504
 C         -0.7562189316       -2.1293503294        0.8584600912
 C          0.3291817086       -1.9848101003       -0.1819902687
 C          0.0601949787       -2.1810623506       -1.5322092487
 C          1.0564601589       -2.0195942113       -2.4782001186
 C          2.3407956690       -1.6704517019       -2.0978697586
 C          2.6216013789       -1.4807326616       -0.7519537786
 C          1.6179474288       -1.6368669408        0.1964756113
 H          1.8389451187       -1.4684427306        1.2417660613
 N          3.9357952891       -1.1313048422       -0.3714189286
 S          4.4663395799        0.4087661074       -0.7658716390
 O          4.1529187302        0.6663006872       -2.1471436591
 O          5.8628180399        0.4525734768       -0.3993042489
 C          3.5363606603        1.4926096982        0.3029193706
 C          4.1523124005        2.0258251782        1.4179764405
 C          3.4076482708        2.8106209789        2.2834617602
 C          2.0632115109        3.0330751795        2.0278154700
 C          1.4582556508        2.4863821695        0.9066490301
 C          2.1996628905        1.7093309788        0.0313549004
 H          1.7590296604        1.2698946488       -0.8499362395
 H          0.4066870109        2.6394032099        0.7275027599
 H          1.4770368412        3.6318147700        2.7068041097
 H          3.8739081409        3.2391393489        3.1561438301
 H          5.1984764304        1.8204771878        1.5787285107
 H          4.1292213389       -1.3030371920        0.6058370715
 H          3.1233471691       -1.5256336725       -2.8243387686
 H          0.8315567189       -2.1696142015       -3.5235172886
 H         -0.9394764614       -2.4570058501       -1.8330094187
 H         -0.3650705815       -1.7253276693        1.8024081011
 C         -1.0905694723       -3.5925843492        1.0684802916
 C         -0.1958706129       -4.4267778194        1.9334382619
 C         -1.5657457127       -4.0521325285        2.4125774817
 H         -2.3287492731       -4.8146219481        2.4538126918
 H         -1.6479233024       -3.3111862083        3.1944828314
 H         -0.0130367234       -5.4506997296        1.6462056023
 H          0.6511360773       -3.9428384897        2.3957412719
 H         -1.5316512025       -4.0626978892        0.1997210317
