  62
        -98.93748502
 C         -2.5828573895       -0.3000237287        0.2558430705
 C         -2.4284231102       -1.2255441586       -0.8061797796
 C         -1.7222479607       -2.4826193690       -0.5116387399
 C         -1.2498975505       -2.6802463194        0.7308508799
 C         -0.4096526509       -3.8236763598        1.2303735396
 C          1.0865171792       -3.4915046305        1.0867359392
 C          1.7083219386       -3.9109566107       -0.2437961910
 H          1.7391559481       -5.0017721107       -0.2990261011
 H          2.7387656188       -3.5482284012       -0.2459699612
 C          0.9956283686       -3.3686727502       -1.4850147807
 H          1.7003458384       -3.4036569505       -2.3186194409
 H          0.7392054591       -2.3197693201       -1.3214407606
 C         -0.2567110519       -4.1730996296       -1.8629865705
 H         -0.2640112622       -5.1083274497       -1.3031090506
 H         -0.2061966923       -4.4447147995       -2.9197750105
 C         -1.5901813515       -3.4415210290       -1.6639680201
 H         -2.3937937118       -4.1827261986       -1.5881632199
 H         -1.8068978414       -2.8364183088       -2.5500303299
 H          1.6355523592       -3.9851885909        1.8919939290
 H          1.2082478998       -2.4116375706        1.2193633493
 H         -0.6603289215       -4.7455958996        0.7135428896
 H         -0.6426763707       -3.9390731598        2.2910703996
 O         -1.4471043098       -1.7837070794        1.7345145801
 C         -2.0802623393       -0.5684694490        1.5291432903
 O         -2.1359506687        0.1386206709        2.5556962104
 O         -2.8655569004       -1.0004532683       -1.9691196195
 C         -3.1770911289        1.0466259017       -0.1198064092
 C         -2.0750846686        1.9296107112       -0.6644139894
 C         -2.2716621585        2.7330180814       -1.7815190593
 C         -1.2268490983        3.4712551709       -2.3091688595
 C          0.0415823418        3.3899167602       -1.7623769798
 C          0.2446722417        2.5956603500       -0.6401215400
 C         -0.8199166385        1.9096693305       -0.0770326398
 H         -0.6420184285        1.3148121803        0.8061822801
 N          1.5153932018        2.4396559894       -0.0607969303
 S          1.8870543312        0.8703377591        0.4682594494
 O          1.2841663605       -0.1030234005       -0.4106604905
 O          1.5690857515        0.7683455892        1.8708833495
 C          3.6604305211        0.8607019583        0.2743955790
 C          4.4172974617        1.6532623978        1.1176230689
 C          5.7941760517        1.6702780972        0.9634630085
 C          6.3883284410        0.8972049570       -0.0235843017
 C          5.6162232304        0.1042545875       -0.8587160616
 C          4.2374820005        0.0852065281       -0.7122916712
 H          3.5944808800       -0.5170126815       -1.3342126511
 H          6.0804963599       -0.4987085027       -1.6222684818
 H          7.4603707610        0.9110264665       -0.1403761920
 H          6.3977077821        2.2835263568        1.6129047184
 H          3.9120916722        2.2267777480        1.8773775590
 H          2.2574612418        2.8277069391       -0.6279184405
 H          0.8674928019        3.9277261699       -2.2024943900
 H         -1.3932834782        4.0903312711       -3.1775461294
 H         -3.2431437486        2.7566821519       -2.2518652290
 H         -3.8755790092        0.8465835321       -0.9450649791
 C         -3.9310331483        1.7551415619        0.9857711510
 C         -5.0216907879        2.7191007325        0.6290883414
 C         -5.3619036484        1.3979638426        1.2491432414
 H         -5.7020250581        1.3735098327        2.2731167915
 H         -5.8088330489        0.6397500929        0.6227331014
 H         -5.1318427373        3.6110322925        1.2261623015
 H         -5.2491086581        2.8576341627       -0.4167429585
 H         -3.3128252979        1.9875200715        1.8431798309
