  62
        -98.93816567
 C         -2.5529014252       -1.3503252440        0.1098280802
 C         -2.5829977402       -0.3731188783       -0.9117410554
 C         -3.5887344093        0.6978447550       -0.7666776329
 C         -4.4008165906        0.6983188225        0.3039395236
 C         -5.4519206794        1.7117233637        0.6637419321
 C         -4.8747666593        2.7891946609        1.5973007763
 C         -4.2217252148        3.9740204765        0.8868635439
 H         -4.9964963741        4.5797267882        0.4121127239
 H         -3.7459074473        4.5910361731        1.6524743539
 C         -3.1742210187        3.6076088278       -0.1678095499
 H         -2.5312390919        2.8098642847        0.2102746949
 H         -2.5376834384        4.4806114695       -0.3265768899
 C         -3.7914526900        3.1915075549       -1.5113724074
 H         -3.3284996505        3.7685971022       -2.3147650092
 H         -4.8496486526        3.4521387119       -1.5139105859
 C         -3.6220818960        1.7107062503       -1.8791585347
 H         -4.4099940747        1.4263994569       -2.5850079049
 H         -2.6709171754        1.5762962237       -2.4043204879
 H         -5.6791268766        3.1747290080        2.2269230115
 H         -4.1461248581        2.3081624968        2.2549589014
 H         -5.8833076905        2.1543672119       -0.2289566748
 H         -6.2328868872        1.1693878004        1.2007221137
 O         -4.3283527589       -0.2537494651        1.2741802885
 C         -3.4133561115       -1.2845703812        1.2097865443
 O         -3.4641106984       -2.0760158828        2.1720065278
 O         -1.8181881409       -0.3760911387       -1.9141191827
 C         -1.5707923335       -2.5133955473        0.1026521709
 C         -0.1971294189       -1.9975207177        0.4583734789
 C          0.2352524642       -2.0318710868        1.7804667280
 C          1.4681381413       -1.5136450336        2.1325540585
 C          2.2915088325       -0.9436305628        1.1771820644
 C          1.8604841025       -0.8877872900       -0.1411579278
 C          0.6314432593       -1.4268593319       -0.4960051101
 H          0.2968240706       -1.3588119651       -1.5193126598
 N          2.6807868226       -0.2955004646       -1.1179418646
 S          3.3159248934        1.2236484070       -0.7871122821
 O          2.4801580793        1.9663689476        0.1281365194
 O          3.5530817988        1.8280943987       -2.0800557297
 C          4.8859061971        0.8620533967       -0.0266189321
 C          5.7643766299        0.0414258426       -0.7068634706
 C          6.9932373956       -0.2444318796       -0.1340872385
 C          7.3228969690        0.2945094274        1.1007229348
 C          6.4318523290        1.1198581389        1.7692128344
 C          5.2002656205        1.4088570298        1.2019631817
 H          4.4734111799        2.0407395382        1.6874237133
 H          6.6896745461        1.5385781067        2.7287705868
 H          8.2799381127        0.0702165562        1.5446541631
 H          7.6887386415       -0.8858109524       -0.6509618207
 H          5.4708927142       -0.3539576170       -1.6648582291
 H          2.2697678018       -0.3107216849       -2.0409360862
 H          3.2495788164       -0.5297369554        1.4463843045
 H          1.7914863322       -1.5513355541        3.1617527509
 H         -0.4160529515       -2.4547662505        2.5324790047
 H         -1.8979752170       -3.1787944544        0.9124054196
 C         -1.5977302324       -3.2898716180       -1.1981827459
 C         -0.9755938569       -4.6520027906       -1.2433630792
 C         -2.4656700080       -4.5060009369       -1.3052875183
 H         -2.9662298279       -4.6996337152       -2.2422003511
 H         -3.0436706824       -4.7860717093       -0.4365661851
 H         -0.4503411593       -4.9493710831       -2.1379394487
 H         -0.5414656741       -5.0311437381       -0.3306481632
 H         -1.5152336755       -2.6665536765       -2.0787420340
