  62
        -98.94356762
 C          0.5033503010        1.8168039793       -0.1142103802
 C          1.6636472608        1.8137269287        0.6894883201
 C          2.7844712706        0.9668417783        0.2388545202
 C          2.6418283306        0.2583918685       -0.8965500999
 C          3.6531803504       -0.6504179518       -1.5440233698
 C          3.7775071496       -2.0216069820       -0.8530925499
 C          3.6436750792       -1.9968116422        0.6687456500
 H          2.7192152193       -1.4856771018        0.9501189899
 H          3.5480506586       -3.0300246122        1.0155567198
 C          4.8225498793       -1.3667777728        1.4072501504
 H          5.7130751190       -1.9773819231        1.2377534806
 H          4.5956927690       -1.3985748628        2.4762181004
 C          5.1543766800        0.0749923171        1.0248288307
 H          5.5915985603        0.1155509071        0.0309407009
 H          5.9231000500        0.4263797167        1.7196995310
 C          3.9907715404        1.0556585676        1.1412394806
 H          3.5945644301        1.0148587576        2.1626939805
 H          4.3825382209        2.0738469475        1.0227035508
 H          4.7383538595       -2.4624772824       -1.1237977398
 H          2.9908865294       -2.6721032916       -1.2414407303
 H          4.6149411106       -0.1456666122       -1.5818834294
 H          3.3222136306       -0.8057069715       -2.5728580999
 O          1.4911246808        0.2695583191       -1.6265357202
 C          0.3937229110        1.0258121195       -1.2568753604
 O         -0.5903385188        0.9176323201       -2.0113758107
 O          1.7684592908        2.4977094785        1.7459253302
 C         -0.6734664887        2.6831486098        0.2869268396
 C         -1.9173744891        1.8557124803        0.4970985691
 C         -3.1908695788        2.3251744809        0.1963743988
 C         -4.3038145892        1.5387816613        0.4363730984
 C         -4.1734927299        0.2689937612        0.9681680683
 C         -2.9045171502       -0.2082846794        1.2751989985
 C         -1.7937243698        0.5880245801        1.0494289490
 H         -0.8160140600        0.2064606797        1.3046474092
 N         -2.7256738209       -1.4910822796        1.8194961584
 S         -1.4405197712       -2.4273562700        1.3166149486
 O         -1.8182420319       -3.7753392299        1.6927250783
 O         -0.2079716711       -1.9486895907        1.8926902390
 C         -1.3717416707       -2.3188944798       -0.4620832014
 C         -0.1320539905       -2.3504139603       -1.0639583110
 C         -0.0521947101       -2.3272291701       -2.4460875410
 C         -1.2116293499       -2.2669130995       -3.2005906913
 C         -2.4510663901       -2.2388733290       -2.5822593316
 C         -2.5368537804       -2.2722422192       -1.2004410317
 H         -3.4923684106       -2.2533164189       -0.7023519119
 H         -3.3517283999       -2.1850211885       -3.1724774219
 H         -1.1472719996       -2.2339058393       -4.2767165313
 H          0.9127546100       -2.3385541904       -2.9272366008
 H          0.7442747693       -2.3749511107       -0.4353453908
 H         -3.5684710912       -2.0391091792        1.9128280981
 H         -5.0413360502       -0.3467658885        1.1491314580
 H         -5.2862554090        1.9166988818        0.1982086882
 H         -3.3110382283        3.3091312310       -0.2262657710
 H         -0.3939006388        3.1267336595        1.2553154897
 C         -0.8654780179        3.7989261100       -0.7216781403
 C         -1.3412901375        5.1512368201       -0.2841457302
 C          0.0840036926        4.9580977996       -0.7034282199
 H          0.4093723830        5.3743666996       -1.6449273197
 H          0.8480194524        4.9578161891        0.0605656003
 H         -1.9950065570        5.7054207505       -0.9408192703
 H         -1.5416806777        5.2966521601        0.7667244497
 H         -1.1850715878        3.4295431203       -1.6896727604
