  62
        -98.94296837
 C         -2.6855011785       -1.2107514340        0.1368669823
 C         -2.6790535989       -0.2272586940       -0.8811872296
 C         -3.8484407649        0.6629864229       -0.9150727418
 C         -4.8393667164        0.4860265778       -0.0222634834
 C         -6.0553729774        1.3579147684        0.0929171293
 C         -5.8204945125        2.5075432883        1.0830188329
 C         -4.5169554730        3.2707185869        0.8470413881
 H         -4.4737546861        4.0751207213        1.5845536736
 H         -3.6726709518        2.6066867046        1.0466782384
 C         -4.3728586555        3.8613415180       -0.5624948906
 H         -5.3494205140        3.9089910395       -1.0457071817
 H         -4.0034050159        4.8853341694       -0.4764297554
 C         -3.3953213507        3.1102343795       -1.4684475966
 H         -3.2055784896        3.7284101933       -2.3499481656
 H         -2.4420420704        2.9774764075       -0.9503091598
 C         -3.8671553383        1.7378327211       -1.9650814651
 H         -4.8605972383        1.8276394794       -2.4090554374
 H         -3.1708686589        1.4086946197       -2.7419403343
 H         -6.6645676792        3.1965585491        1.0181913731
 H         -5.7964542746        2.0939607795        2.0939300504
 H         -6.3060898131        1.7551080635       -0.8886724019
 H         -6.8852437742        0.7460222088        0.4504223330
 O         -4.8213268800       -0.4888786448        0.9229667316
 C         -3.7411120231       -1.3478609516        1.0379037866
 O         -3.8367044125       -2.1763185419        1.9662770437
 O         -1.7484196517       -0.0970228192       -1.7183345629
 C         -1.5071357022       -2.1579268870        0.2805451383
 C         -0.2492311949       -1.3582880561        0.5196707321
 C         -0.2213158505       -0.4708201854        1.5930264664
 C          0.9005164373        0.2917681827        1.8514194664
 C          2.0206813643        0.1901420188        1.0440598862
 C          2.0089205372       -0.6989234775       -0.0207100852
 C          0.8808611548       -1.4720126677       -0.2726203346
 H          0.8879864109       -2.1562071606       -1.1066838836
 N          3.1343742806       -0.7991178713       -0.8521041638
 S          4.6621397929       -0.8886720641       -0.1710923355
 O          5.4832555468       -1.5280080608       -1.1759086923
 O          4.6277360253       -1.5223732315        1.1265803436
 C          5.1642161001        0.8119765936       -0.0087322727
 C          5.6087206263        1.2847074480        1.2104220330
 C          6.0050515769        2.6092255538        1.3119125464
 C          5.9514275913        3.4327753601        0.1979275923
 C          5.5055449691        2.9417015563       -1.0202158348
 C          5.1091467395        1.6183743289       -1.1285603382
 H          4.7585079461        1.1996563704       -2.0570947947
 H          5.4643979350        3.5853500534       -1.8842095034
 H          6.2586212731        4.4634957658        0.2793612241
 H          6.3525485323        2.9925781130        2.2578351744
 H          5.6280061167        0.6097604647        2.0514093456
 H          3.0288037669       -1.4489556131       -1.6170918372
 H          2.8968295357        0.7873903441        1.2361230184
 H          0.9038851005        0.9767176362        2.6859589758
 H         -1.0985497716       -0.3879995661        2.2211297700
 H         -1.7049850378       -2.7558178719        1.1820198072
 C         -1.4325441260       -3.0879450435       -0.9117982906
 C         -0.7709509338       -4.4261753095       -0.7810424983
 C         -2.2614712529       -4.3355512573       -0.9083137381
 H         -2.7212001411       -4.6520977857       -1.8325141278
 H         -2.8647802033       -4.5276369270       -0.0329059678
 H         -0.2088517506       -4.8103221119       -1.6192484978
 H         -0.3585886581       -4.6882241763        0.1818377746
 H         -1.3362116753       -2.5567335626       -1.8517735271
