  62
        -98.94180694
 C         -2.7661540770       -0.4031144937       -0.3179965328
 C         -2.0042875159        0.4505795506       -1.1528412069
 C         -2.1056914971        1.8894950286       -0.8681477906
 C         -2.9251327433        2.3200790542        0.1065045063
 C         -3.0917563042        3.7517426976        0.5238168291
 C         -2.1331786728        4.1191023106        1.6647339309
 C         -0.6807875076        3.7098800798        1.4165752202
 H         -0.0942320165        4.0645562602        2.2673742576
 H         -0.6015946177        2.6193960972        1.4149444840
 C         -0.0749522282        4.2571354228        0.1169636814
 H         -0.6632160522        5.1033932489       -0.2411171761
 H          0.9303659153        4.6249223361        0.3325524078
 C          0.0606281979        3.2183452089       -0.9981470372
 H          0.5356391886        2.3203512414       -0.5920554271
 H          0.7212083901        3.6290711884       -1.7670329823
 C         -1.2489518543        2.8122898714       -1.6878806262
 H         -1.8061413509        3.7059090726       -1.9764942346
 H         -0.9932460156        2.2578878418       -2.5954655618
 H         -2.1848939018        5.1980953267        1.8228187804
 H         -2.4744097317        3.6249951766        2.5774476391
 H         -2.9153840355        4.3969422451       -0.3345868199
 H         -4.1185019101        3.8906226609        0.8669952883
 O         -3.6818338843        1.4775143729        0.8549704655
 C         -3.5918431081        0.1074798207        0.6892290928
 O         -4.3019654932       -0.5479119666        1.4786049209
 O         -1.2689264864        0.0594639767       -2.0998076625
 C         -2.6970493036       -1.9239473325       -0.3893310287
 C         -1.4387472394       -2.3674036772        0.3183199102
 C         -1.4895161061       -3.0253320019        1.5415827865
 C         -0.3264664893       -3.3246544687        2.2310485058
 C          0.9088639603       -2.9569341039        1.7265935263
 C          0.9659829799       -2.3032755186        0.5039097113
 C         -0.1955055299       -2.0360121179       -0.2009362479
 H         -0.1379800859       -1.5071538176       -1.1405205518
 N          2.2177870312       -1.8506721246        0.0056637186
 S          2.7202579748       -0.4764979441        0.8666556047
 O          3.1168706576       -0.9039500598        2.1850077764
 O          1.7022488034        0.5501273831        0.8132963162
 C          4.1532677645        0.0154074379       -0.0715506518
 C          5.3429907724       -0.6558190840        0.1359440464
 C          6.4495609450       -0.3044146913       -0.6202922075
 C          6.3474954978        0.7044881016       -1.5667628994
 C          5.1460610609        1.3682857435       -1.7636677048
 C          4.0347144134        1.0206440115       -1.0115632795
 H          3.0818039183        1.5128569343       -1.1282639881
 H          5.0687345315        2.1530110584       -2.4989711724
 H          7.2099382676        0.9767628695       -2.1544025902
 H          7.3858830561       -0.8171538378       -0.4702132472
 H          5.3750190345       -1.4272098219        0.8871677432
 H          2.1179783151       -1.5700350679       -0.9638151575
 H          1.8187534770       -3.1393543474        2.2746671138
 H         -0.3841391051       -3.8320827968        3.1823281803
 H         -2.4517325083       -3.2743327151        1.9659815279
 H         -3.5569763677       -2.2904294814        0.1866528412
 C         -2.7904379854       -2.4751456536       -1.7973891417
 C         -3.1831487414       -3.9083973317       -1.9873810996
 C         -4.1355566201       -2.8138470355       -2.3624436342
 H         -4.3167487110       -2.6206147236       -3.4090215204
 H         -4.9978814651       -2.6488910994       -1.7327374220
 H         -2.7095292522       -4.4712341564       -2.7768912539
 H         -3.4009388689       -4.4878943683       -1.1029506268
 H         -2.0603252182       -2.0570564352       -2.4768632125
