  62
        -98.93417663
 C         -2.6076023898       -1.4437781101       -0.0571992099
 C         -2.5007856697       -0.2596700102       -0.8249855002
 C         -3.6266207197        0.6835401198       -0.7172468504
 C         -4.6684719398        0.3782417000        0.0771040897
 C         -5.8499154498        1.2652424301        0.3495385594
 C         -5.4607159698        2.3661962803        1.3567377892
 C         -5.4934206397        3.7836198602        0.7848564189
 H         -4.9998867598        4.4385185003        1.5060785388
 H         -6.5324441797        4.1088681401        0.7007914688
 C         -4.8338238897        3.9653766399       -0.5855838811
 H         -4.6983536797        5.0388239798       -0.7336366413
 H         -5.5139723597        3.6268593097       -1.3685913311
 C         -3.4803071897        3.2685518098       -0.7772736009
 H         -2.9890311597        3.1061404500        0.1827622491
 H         -2.8331417497        3.9338810297       -1.3529168011
 C         -3.5490221797        1.9357644296       -1.5462756707
 H         -2.6318754297        1.8259165595       -2.1329499906
 H         -4.3871129497        1.9621504595       -2.2483957207
 H         -4.4588317498        2.1478094103        1.7328826293
 H         -6.1329666798        2.3285512305        2.2151685992
 H         -6.2025579797        1.7044082699       -0.5809244707
 H         -6.6393202098        0.6361479802        0.7611458496
 O         -4.7316983998       -0.7685000499        0.8023359499
 C         -3.7072841298       -1.6978774299        0.7644905401
 O         -3.8903295998       -2.6946812697        1.4910431903
 H          0.7673669103       -1.5158375603       -1.2970148598
 C          0.7915261502       -1.4023506601       -0.2248663498
 C         -0.2663253198       -1.8627269600        0.5401749002
 C         -0.2206546198       -1.6806949197        1.9202010202
 C          0.8588715502       -1.0541692995        2.5111733601
 C          1.9136105002       -0.5914074197        1.7419105100
 C          1.8719801602       -0.7537730500        0.3647291600
 N          2.9318959402       -0.3065443602       -0.4431328600
 S          3.6119440003        1.2251556998       -0.3029863503
 O          3.0856947202        1.9196033401        0.8459159695
 O          3.4688813203        1.8822688696       -1.5842048905
 C          5.3361805402        0.8446700299       -0.0424686302
 C          5.7103198902        0.1949659501        1.1174726599
 C          7.0471494702       -0.1095548699        1.3167675800
 C          7.9861585302        0.2382535499        0.3571643700
 C          7.5965863403        0.8887437997       -0.8031457402
 C          6.2599553303        1.1943362097       -1.0075392003
 H          5.9124229903        1.6992960095       -1.8941377304
 H          8.3270645003        1.1583742495       -1.5489489702
 H          9.0263051502        0.0005924300        0.5152357601
 H          7.3514487302       -0.6173531897        2.2179480301
 H          4.9563232302       -0.0615902997        1.8430024300
 H          2.7775875803       -0.5022024904       -1.4220289000
 H          2.7376945602       -0.0713767296        2.2003423799
 H          0.8819028301       -0.9199828293        3.5823484101
 H         -1.0528217798       -2.0262913295        2.5187218002
 C         -1.4993683198       -2.4851992301       -0.0679737597
 H         -1.8376239698       -3.2907239199        0.5974821205
 C         -1.2891695698       -3.0560409904       -1.4543589095
 C         -0.5328934798       -4.3395322704       -1.6149023593
 C         -2.0134108798       -4.3079804704       -1.8441963893
 H         -2.3819063197       -4.3950186806       -2.8553756593
 H         -2.6573791398       -4.7621188903       -1.1052593092
 H         -0.1695427198       -4.8171864502       -0.7176997691
 H          0.1166129703       -4.4536566006       -2.4693360092
 H         -1.1733027297       -2.2959125605       -2.2173332597
 O         -1.5224805197        0.0023495896       -1.5745783002
