  62
        -98.93726565
 C         -1.8386608903       -0.6689804313        0.8606350397
 C         -2.2322600905       -0.3809400302       -0.4657695500
 C         -3.6824039505       -0.4093268301       -0.7474012299
 C         -4.5309156804       -0.7236497610        0.2492729699
 C         -6.0349758004       -0.7739816711        0.2084354100
 C         -6.6730377505        0.6248710989        0.2387282013
 C         -5.9986365306        1.6597191497       -0.6586176779
 H         -6.4641452107        2.6280840995       -0.4562735871
 H         -4.9459480506        1.7433186595       -0.3818546880
 C         -6.1092318708        1.3930255209       -2.1578737581
 H         -7.1644723608        1.3635240211       -2.4388412581
 H         -5.6522643709        2.2420493014       -2.6727425875
 C         -5.4376158907        0.1141150214       -2.6616437493
 H         -5.3981377208        0.1765368324       -3.7531262992
 H         -6.0370243606       -0.7607920788       -2.4250622400
 C         -4.0012072907       -0.0840289889       -2.1868017896
 H         -3.5476655007       -0.8884594184       -2.7783023503
 H         -3.4175718107        0.8123182414       -2.4258865889
 H         -7.7249975805        0.5311617990       -0.0359290287
 H         -6.6243960804        0.9947383280        1.2659308416
 H         -6.3660209104       -1.3338596403       -0.6609969104
 H         -6.3551651503       -1.3209858618        1.0979478996
 O         -4.1008695302       -1.0090742220        1.5125722596
 C         -2.7634794502       -0.9840566022        1.8539535995
 O         -2.5265379601       -1.2519610432        3.0502625793
 H          2.1291282296       -0.0661948905        0.2407651198
 C          1.5359610695        0.8135808893        0.4272569006
 C          0.2472231396        0.6954213088        0.9250103706
 C         -0.4787190205        1.8576692385        1.1720611017
 C          0.0597889094        3.0998794988        0.9002273027
 C          1.3449232494        3.2127483993        0.3997495527
 C          2.0871873194        2.0618513895        0.1703391316
 N          3.3924689194        2.1391667301       -0.3380593284
 S          4.5866217695        1.1525131396        0.2941005806
 O          4.3604738197        0.8709701584        1.6925006204
 O          5.8263059094        1.8302210400       -0.0232241589
 C          4.5013670595       -0.3493846596       -0.6579904407
 C          4.7863990297       -1.5476506701       -0.0340118517
 C          4.7746721397       -2.7145193395       -0.7825294927
 C          4.4787896495       -2.6625756283       -2.1357873226
 C          4.1953069494       -1.4507026578       -2.7474016516
 C          4.2108240294       -0.2799950985       -2.0060999406
 H          3.9920145193        0.6766910019       -2.4500433097
 H          3.9616150893       -1.4145131570       -3.7992799715
 H          4.4670540595       -3.5717334978       -2.7161287634
 H          4.9943862098       -3.6573890399       -0.3070734635
 H          4.9981943398       -1.5446126910        1.0232828783
 H          3.7312930493        3.0768626602       -0.4973708877
 H          1.7690700593        4.1829495095        0.1893307735
 H         -0.5223198606        3.9900321686        1.0867188135
 H         -1.4793308704        1.7734754681        1.5745277517
 C         -0.3693350003       -0.6473065115        1.2353250196
 H         -0.3301710602       -0.7920436725        2.3257960694
 C          0.3466605097       -1.8029921409        0.5654245085
 C          1.5084545698       -2.4720620914        1.2340719778
 C          0.1896847599       -3.1773719714        1.1407601574
 H          0.0979923099       -4.0132387409        0.4638649767
 H         -0.4077825700       -3.2722948922        2.0361286073
 H          2.3212339898       -2.8247751808        0.6171279674
 H          1.8184479599       -2.0940698122        2.1970619981
 H          0.3612825196       -1.7091477400       -0.5144714114
 O         -1.4153258106       -0.1013002294       -1.3817003899
