  62
        -98.94412417
 C         -2.0601831422       -1.3013161363       -0.1291301563
 C         -2.4490865816       -0.2465067693       -0.9899186146
 C         -3.8474390538        0.1940230097       -0.8707730199
 C         -4.6638596502       -0.4198327711        0.0043758452
 C         -6.0900843348       -0.0334722959        0.2657292954
 C         -6.1866872396        0.9869492087        1.4086304945
 C         -5.2275659455        2.1688597059        1.2652360778
 H         -5.4064138484        2.8369536995        2.1105581397
 H         -4.1997143128        1.8088705718        1.3536170534
 C         -5.3776823209        2.9532605321       -0.0457945458
 H         -5.3624851202        4.0212216863        0.1820024162
 H         -6.3441703681        2.7331481594       -0.5007730969
 C         -4.2675069872        2.7010177475       -1.0678618825
 H         -3.2926261131        2.8310072561       -0.5903111364
 H         -4.3501355347        3.4580649747       -1.8524448245
 C         -4.2899770621        1.3281307778       -1.7517831034
 H         -5.2843267614        1.1361230505       -2.1598332308
 H         -3.5775769457        1.3594304182       -2.5814112365
 H         -7.2135399487        1.3536930848        1.4582803470
 H         -5.9621103776        0.4768635536        2.3482072918
 H         -6.5221115040        0.3808024126       -0.6430709798
 H         -6.6444015972       -0.9311985671        0.5445420197
 O         -4.2603752900       -1.4445008938        0.7976381294
 C         -2.9517909615       -1.8936186075        0.7685928550
 O         -2.7075871978       -2.8154681841        1.5721468163
 H          0.9586072104       -0.0248695434       -1.4593072296
 C          1.0062538260        0.0984326376       -0.3892464610
 C          0.2616275668       -0.7308570807        0.4345415008
 C          0.3226634677       -0.5326831596        1.8111036352
 C          1.1079617833        0.4705772098        2.3477385918
 C          1.8469453237        1.3000112547        1.5219097396
 C          1.7853105949        1.1145334880        0.1477639752
 N          2.5504976523        1.9466490222       -0.6935467585
 S          4.1964749824        1.9700426837       -0.3814348541
 O          4.4644893897        2.8581110824        0.7218741470
 O          4.8275034294        2.3118442668       -1.6366569668
 C          4.5770188397        0.2899826577        0.0841426676
 C          4.4610172658       -0.6920819495       -0.8797812685
 C          4.6799132796       -2.0120112219       -0.5220166438
 C          5.0044253337       -2.3263884745        0.7889000598
 C          5.1197180237       -1.3288757350        1.7442778614
 C          4.9007449173       -0.0065842417        1.3920928855
 H          4.9767969862        0.7990075237        2.1037646494
 H          5.3735510071       -1.5767947452        2.7622786835
 H          5.1685246230       -3.3558138651        1.0661993715
 H          4.5909574123       -2.7903109829       -1.2629145818
 H          4.2128243465       -0.4116606344       -1.8908525035
 H          2.3731147946        1.7906555893       -1.6754092511
 H          2.4670301510        2.0879551612        1.9181157354
 H          1.1462240114        0.6093508784        3.4175074538
 H         -0.2621381103       -1.1753835361        2.4548184959
 C         -0.6300819296       -1.8179761765       -0.1131731792
 H         -0.6221102425       -2.6524261311        0.6003570270
 C         -0.1950446160       -2.3326481111       -1.4698730079
 C          1.0727471037       -3.1250114544       -1.5756115853
 C         -0.2524975067       -3.8028804067       -1.7487530874
 H         -0.5416298542       -4.1279963994       -2.7370469105
 H         -0.6061648454       -4.4478883721       -0.9577626275
 H          1.6219522341       -3.3054568299       -0.6639579265
 H          1.6950170865       -2.9876003304       -2.4466847655
 H         -0.4471166036       -1.6648828580       -2.2842122652
 O         -1.6803929826        0.3038077846       -1.8214394670
