  62
        -98.94322560
 C          2.5025387053        1.1516780884       -0.1212750829
 C          3.6025141181        0.8004193577        0.7005080303
 C          4.5293811870       -0.1900285023        0.1436909679
 C          4.3096306027       -0.6919822909       -1.0851401238
 C          5.1697148819       -1.7017032411       -1.7954567263
 C          4.8633707408       -3.1568268558       -1.4147301238
 C          5.3256434775       -3.5754418124       -0.0184205714
 H          5.2457293565       -4.6631419175        0.0323289623
 H          6.3785571854       -3.3206046797        0.1060379285
 C          4.5075174062       -2.9669803758        1.1292734926
 H          4.2629921059       -3.7457922442        1.8551120006
 H          3.5607151980       -2.5847853476        0.7402900595
 C          5.2182088136       -1.8470644347        1.8894308600
 H          4.5360439347       -1.4650769911        2.6531712038
 H          6.0989514408       -2.2485664593        2.3954801973
 C          5.6546622005       -0.6666522439        1.0115977167
 H          5.9434671767        0.1594067153        1.6660279816
 H          6.5136042471       -0.9473784849        0.4026447356
 H          3.7875247796       -3.3224438884       -1.5072396872
 H          5.3625402662       -3.7966289137       -2.1461046711
 H          6.2215288622       -1.4873524968       -1.6045001286
 H          4.9774573114       -1.5776169325       -2.8633209479
 O          3.2537992123       -0.3127709536       -1.8519524284
 C          2.3112766967        0.5931740618       -1.3850712467
 O          1.3829461066        0.8144627357       -2.1857924552
 O          3.7989749169        1.2917079927        1.8438098208
 C          1.4809614375        2.1333622539        0.4287275892
 C          0.1979881413        1.3802344408        0.6795567321
 C          0.1234282346        0.5357221200        1.7848207830
 C         -1.0124148222       -0.2121614549        2.0264704517
 C         -2.0949882550       -0.1441924605        1.1659533492
 C         -2.0311677128        0.6933937880        0.0611688679
 C         -0.8934771408        1.4584311538       -0.1699950649
 H         -0.8536188654        2.0963701289       -1.0387093823
 N         -3.1060326877        0.7429538007       -0.8369432693
 S         -4.6812671279        0.7577597177       -0.2786326200
 O         -5.4590860095        1.3156704909       -1.3632280194
 O         -4.7895026346        1.4291995923        0.9960367075
 C         -5.0912039073       -0.9658274466       -0.0970050335
 C         -5.6747442122       -1.4143184721        1.0717417815
 C         -5.9978988678       -2.7573862511        1.1876062680
 C         -5.7347685575       -3.6234292106        0.1374948343
 C         -5.1508107946       -3.1567361630       -1.0308079222
 C         -4.8264226640       -1.8151039290       -1.1533982528
 H         -4.3704515114       -1.4156505943       -2.0441293648
 H         -4.9458056369       -3.8331661867       -1.8450445259
 H         -5.9852104999       -4.6684537087        0.2299028321
 H         -6.4518682977       -3.1222253550        2.0949338848
 H         -5.8541926778       -0.7063746109        1.8652319277
 H         -2.9696015211        1.3647780672       -1.6193789703
 H         -2.9824094371       -0.7285812029        1.3456376912
 H         -1.0563918647       -0.8598315180        2.8889451141
 H          0.9751346464        0.4706867129        2.4478207111
 H          1.8820360179        2.4542694871        1.4000096129
 C          1.3259375494        3.3500445288       -0.4576535042
 C          0.6630307888        4.5779593083        0.0891982031
 C          2.1395745401        4.5737537005       -0.1664660331
 H          2.5212824246        5.1478764835       -0.9973905489
 H          2.8058034288        4.5401818732        0.6830276361
 H          0.0291907434        5.1584211536       -0.5640394741
 H          0.3244182491        4.5460751769        1.1138703703
 H          1.1614494339        3.1039340196       -1.4998348340
