  62
        -98.94372599
 C         -1.5013722066       -1.5848136223       -0.1060255677
 C         -1.3723913826       -0.2649035405        0.3951560655
 C         -2.6298618489        0.3907303325        0.7942928185
 C         -3.7864143620       -0.2912395694        0.7249837347
 C         -5.1383669855        0.2716576599        1.0533154228
 C         -5.8074205483        0.8721003521       -0.1909694789
 C         -4.9053629836        1.8228724404       -0.9778044073
 H         -4.0750544997        1.2552257463       -1.4041389025
 H         -5.4918661035        2.2098475281       -1.8140095381
 C         -4.3497318119        2.9941190749       -0.1559456174
 H         -4.9415023924        3.1227656404        0.7510484758
 H         -4.4514071557        3.9104820268       -0.7412455910
 C         -2.8714601764        2.8644118593        0.2163552354
 H         -2.2865563234        2.6444354333       -0.6798782497
 H         -2.5371232631        3.8315232635        0.6002487859
 C         -2.5375557650        1.8102706259        1.2790879762
 H         -1.4939841068        1.9536035065        1.5746217280
 H         -3.1701925038        1.9588449401        2.1564701591
 H         -6.7100796948        1.3996644616        0.1228504735
 H         -6.1051406733        0.0552493176       -0.8527536554
 H         -5.7634787748       -0.5366577068        1.4367074051
 H         -5.0320421497        1.0321210878        1.8245029123
 O         -3.8603186319       -1.5799381515        0.3022886132
 C         -2.7280851708       -2.2530642305       -0.1265206444
 O         -2.9388254533       -3.4292368392       -0.4855467698
 H          2.1515799380       -1.1231450639       -0.9408336141
 C          2.0182392458       -1.5346762983        0.0449061906
 C          0.8488953290       -2.1970577462        0.3812355950
 C          0.7154879236       -2.7075090264        1.6699889395
 C          1.7241531116       -2.5492616219        2.6000134518
 C          2.8844210715       -1.8731227515        2.2662161598
 C          3.0277337232       -1.3625791301        0.9816728125
 N          4.1990996354       -0.6872707157        0.6149101901
 S          4.1970033878        0.5244669677       -0.5295912255
 O          4.0408652385       -0.0385343816       -1.8484710991
 O          5.4469974368        1.2198818771       -0.2959397880
 C          2.8443822880        1.6239998295       -0.1568369889
 C          2.0115578951        2.0339032893       -1.1754734794
 C          1.0041643729        2.9411412597       -0.8948475557
 C          0.8477041668        3.4195825070        0.3948678481
 C          1.6900106608        2.9943970108        1.4091683329
 C          2.7013568040        2.0904123178        1.1335307867
 H          3.3729327768        1.7473271753        1.9040350414
 H          1.5573214292        3.3607527243        2.4148756796
 H          0.0593341799        4.1233845925        0.6114901577
 H          0.3414704637        3.2657742870       -1.6819520130
 H          2.1621898016        1.6306242099       -2.1642327966
 H          4.8433430441       -0.4968224236        1.3674879907
 H          3.6715126269       -1.7406055412        2.9927886354
 H          1.6050634064       -2.9484716419        3.5961002517
 H         -0.1985659233       -3.2224003618        1.9345820633
 C         -0.2943333782       -2.3729084357       -0.5861745888
 H         -0.6080760169       -3.4294579537       -0.5515181805
 C          0.0962968503       -2.0820387466       -2.0274634581
 C         -0.9430166767       -1.7481969391       -3.0544351177
 C          0.0365258403       -0.7046641020       -2.6127307879
 H          0.8189568739       -0.4112437371       -3.2981020863
 H         -0.3090613419        0.0943405366       -1.9758948607
 H         -0.8407964079       -2.1679452633       -4.0439038724
 H         -1.9669308805       -1.6663830974       -2.7191642946
 H          0.9145412718       -2.7141620110       -2.3603804451
 O         -0.2799743553        0.3443546021        0.5107583288
