  62
        -98.94600714
 C         -2.0225806439       -0.1814472699        0.5111260263
 C         -1.6323446413        0.9638076663        1.2494073956
 C         -1.6513905407        2.2411233933        0.5288115845
 C         -1.9709894786        2.2617414971       -0.7774933814
 C         -2.0398177559        3.4824170657       -1.6546973316
 C         -0.6794988330        3.9110872766       -2.2217587285
 C          0.2560456921        4.5862539533       -1.2182286661
 H          1.0651257376        5.0426562989       -1.7920100189
 H         -0.2772233317        5.3893726049       -0.7075798829
 C          0.8660687789        3.6281506264       -0.1857101369
 H          1.9360123755        3.8307096737       -0.0893387992
 H          0.7733399416        2.6016362265       -0.5510040639
 C          0.2573448359        3.7346583011        1.2128594258
 H          0.7484377159        3.0024946426        1.8576359743
 H          0.4583194334        4.7278635623        1.6211350215
 C         -1.2547934896        3.4819614903        1.2726170533
 H         -1.5365108306        3.3438731775        2.3197305001
 H         -1.7935903162        4.3429456986        0.8767534195
 H         -0.1841755241        3.0315965675       -2.6420311929
 H         -0.8706666850        4.6106792743       -3.0391670644
 H         -2.4840142027        4.3109480544       -1.1016213513
 H         -2.6966935413        3.2279052428       -2.4894019378
 O         -2.2979047814        1.1382218088       -1.4647913602
 C         -2.3014338307       -0.1094972505       -0.8558051755
 O         -2.5827734882       -1.0418450146       -1.6323285248
 O         -1.2798327303        0.9210438012        2.4594065845
 C         -1.9645995458       -1.5302393761        1.2124701949
 C         -1.1434617877       -2.4675818145        0.3635298842
 C         -1.5873318750       -3.6835699447       -0.1346916481
 C         -0.7820911245       -4.4161145984       -0.9911476831
 C          0.4548757162       -3.9430611283       -1.3878598445
 C          0.9120714154       -2.7295629887       -0.8831905745
 C          0.1308711156       -2.0335494859        0.0202346900
 H          0.4836425470       -1.0939044820        0.4136711436
 N          2.1547108799       -2.2047293656       -1.2625585028
 S          2.4535961202       -0.5565762144       -1.2688321206
 O          1.2656775765        0.2306326885       -1.4998257286
 O          3.5199464229       -0.3986394496       -2.2362875390
 C          3.1193078306       -0.2656420794        0.3576850711
 C          4.3614437735       -0.8009795489        0.6406848873
 C          4.9039033752       -0.6124001197        1.9009282332
 C          4.1981018912        0.1037488299        2.8565022087
 C          2.9549731601        0.6382061909        2.5572065990
 C          2.4093196782        0.4540548919        1.2962370225
 H          1.4422818057        0.8581764489        1.0379988066
 H          2.3978276740        1.1918872299        3.2966131169
 H          4.6174856633        0.2485579309        3.8395555260
 H          5.8720133465       -1.0244209707        2.1357247949
 H          4.8790017193       -1.3419201370       -0.1337830353
 H          2.6062149553       -2.6784367982       -2.0302751486
 H          1.0577457911       -4.4968867353       -2.0914268694
 H         -1.1381895526       -5.3576929525       -1.3814431628
 H         -2.5727347576       -4.0414898139        0.1147337332
 H         -1.4036518449       -1.3279039918        2.1407890865
 C         -3.3100131518       -2.0962199835        1.6356864958
 C         -4.4741752245       -1.1919230636        1.9069420145
 C         -4.5011212907       -2.1145384911        0.7271948573
 H         -5.1582768146       -2.9712616758        0.7644995675
 H         -4.3831210052       -1.6969978935       -0.2599808004
 H         -5.1115400161       -1.4121047240        2.7501387285
 H         -4.3379598284       -0.1356053982        1.7241854079
 H         -3.1976306008       -2.9449785395        2.3035025602
