  62
        -98.93720556
 C         -2.4234284492       -1.0381876108       -0.0500052518
 C         -3.5337579678       -0.7617848347        0.7814769771
 C         -4.5895027491        0.1069968831        0.2265569297
 C         -4.4353012715        0.5950124333       -1.0185409890
 C         -5.3469501153        1.5225526040       -1.7775402604
 C         -5.2523650356        2.9781904570       -1.2935719007
 C         -5.2471092016        3.1517008052        0.2227772986
 H         -5.0746251539        4.2101804278        0.4346727095
 H         -4.4069317774        2.5965708604        0.6438407108
 C         -6.5357335677        2.7380279386        0.9296050750
 H         -7.3691103329        3.3153162365        0.5231154494
 H         -6.4280665513        3.0080369791        1.9832510346
 C         -6.8912634792        1.2513602293        0.8562959989
 H         -7.3223213050        0.9962264509       -0.1080468168
 H         -7.6696904659        1.0658426017        1.6021688105
 C         -5.7399991597        0.3059201600        1.1839486155
 H         -6.1503847736       -0.6958461359        1.3596732066
 H         -5.2918836159        0.6030947534        2.1389448625
 H         -6.0841065495        3.5385405956       -1.7239660081
 H         -4.3227796266        3.4028353408       -1.6803505275
 H         -6.3706950359        1.1638213883       -1.7268343380
 H         -5.0322937240        1.4831166423       -2.8227635653
 O         -3.3384436726        0.3137671257       -1.7785763485
 C         -2.3141159549       -0.4998544666       -1.3312365095
 O         -1.3938866186       -0.6631451198       -2.1554145662
 O         -3.6462324138       -1.2219345207        1.9498595232
 C         -1.3227902156       -1.9354218081        0.4897077491
 C         -0.0659870844       -1.1201492586        0.6652455435
 C          0.0332027702       -0.2612589989        1.7568650392
 C          1.1585460317        0.5186176060        1.9429772076
 C          2.2072273477        0.4650477160        1.0407548623
 C          2.1157834075       -0.3828459907       -0.0539549544
 C          0.9885762609       -1.1749278731       -0.2319999214
 H          0.9288093508       -1.8222851789       -1.0928318156
 N          3.1701828930       -0.4257770424       -0.9835919382
 S          4.7148332999       -0.7351484723       -0.4065009020
 O          5.4346846611       -1.3037936136       -1.5252714785
 O          4.6778675080       -1.5266011852        0.8018237150
 C          5.3760045129        0.8801673494       -0.0552325598
 C          5.3975819889        1.8113340397       -1.0750479990
 C          5.9214252098        3.0688351550       -0.8213780301
 C          6.4149823850        3.3710818722        0.4392257841
 C          6.3885638179        2.4242475044        1.4516338163
 C          5.8645261265        1.1647939685        1.2047924923
 H          5.8180747115        0.3984357075        1.9619957330
 H          6.7726648292        2.6613033791        2.4308115754
 H          6.8227736438        4.3505624783        0.6333371579
 H          5.9433387238        3.8079408093       -1.6060041294
 H          5.0072066050        1.5357614030       -2.0406455638
 H          2.9681068958       -0.9909471220       -1.7956066492
 H          3.0873451629        1.0724084787        1.1764435407
 H          1.2212936617        1.1764233176        2.7965079147
 H         -0.7898834841       -0.2136809464        2.4565463210
 H         -1.6660278570       -2.2460212872        1.4862127638
 C         -1.1377706671       -3.1702821245       -0.3669898963
 C         -0.3551469661       -4.3287324909        0.1732427686
 C         -1.8410086852       -4.4374224377        0.0118863686
 H         -2.2298164744       -5.0656474041       -0.7754864585
 H         -2.4545055707       -4.4214031269        0.9006470869
 H          0.2785988677       -4.8846736407       -0.5011784893
 H          0.0438017865       -4.2366228237        1.1722745935
 H         -1.0539687349       -2.9495142321       -1.4246152378
