  62
        -98.94522359
 C         -0.9580499053       -1.5366496424       -0.6644237619
 C         -2.1812096267       -1.7951935133        0.0093641748
 C         -3.2247767728       -0.7739532872       -0.1167875460
 C         -2.9939833111        0.3228313374       -0.8606309823
 C         -3.9662112029        1.4440259483       -1.1101844068
 C         -4.0089112974        2.4994702081        0.0030403929
 C         -4.6768633123        2.0529131886        1.3037855694
 H         -4.8328687264        2.9486095951        1.9083368517
 H         -5.6597563732        1.6346725889        1.0847735547
 C         -3.8549063914        1.0440855513        2.1182386728
 H         -2.8201987846        1.0475686077        1.7674075095
 H         -3.8393674290        1.3471019537        3.1675176014
 C         -4.3859199598       -0.3883886362        2.0684609347
 H         -5.3700721109       -0.4326895623        2.5404893377
 H         -3.7084683716       -1.0268155766        2.6414115835
 C         -4.4968471749       -0.9672731442        0.6521113906
 H         -5.3344110567       -0.5124719631        0.1235173311
 H         -4.6760090387       -2.0421930591        0.7335722303
 H         -4.5591869192        3.3593827795       -0.3856169633
 H         -2.9876024393        2.8190076855        0.2148183827
 H         -3.6465873283        1.9301177684       -2.0342092133
 H         -4.9647301065        1.0326087655       -1.2624093503
 O         -1.8218078648        0.5229702447       -1.5155481060
 C         -0.7728343116       -0.3833898985       -1.4280487590
 O          0.2314736329       -0.0348274640       -2.0791489177
 O         -2.3927112896       -2.8420900775        0.6786363618
 C          0.1337315275       -2.5787596358       -0.4953361114
 C          1.0827015776       -2.1954697478        0.6157931361
 C          1.3090973334       -3.0521678649        1.6864817343
 C          2.1846174060       -2.6967274060        2.6972299902
 C          2.8480560306       -1.4843501013        2.6578598476
 C          2.6219232808       -0.6157407084        1.5944120503
 C          1.7444175253       -0.9756918609        0.5824158047
 H          1.5843721548       -0.3044733080       -0.2457963219
 N          3.2386977119        0.6387095997        1.5611750883
 S          3.4918378991        1.4865465125        0.1472289242
 O          3.9377613146        0.6276707084       -0.9244796154
 O          4.4246337553        2.5266163192        0.5355877639
 C          1.9333188333        2.2547166865       -0.2335169657
 C          1.0912978990        2.6240266046        0.7961119596
 C         -0.0824780946        3.2934621646        0.4914079523
 C         -0.3891923664        3.5872605109       -0.8285197222
 C          0.4660070182        3.2076697922       -1.8494636747
 C          1.6398578798        2.5349670532       -1.5517928843
 H          2.3214335255        2.2057410870       -2.3194923466
 H          0.2194292353        3.4213473474       -2.8770465881
 H         -1.3020462246        4.1113613617       -1.0660665456
 H         -0.7525303818        3.5840485432        1.2859330934
 H          1.3559615127        2.3780688702        1.8114889378
 H          3.9484094366        0.8078328487        2.2574009853
 H          3.5315802301       -1.2048662627        3.4448435344
 H          2.3537028238       -3.3704971468        3.5233858625
 H          0.7850026382       -3.9954860144        1.7285270609
 H         -0.3892478222       -3.4949380997       -0.1874216842
 C          0.9120727741       -2.8766382172       -1.7615363439
 C          1.5470461911       -4.2239793978       -1.9239209218
 C          0.3560373257       -3.8509343652       -2.7539855787
 H          0.4971590494       -3.6508860920       -3.8054108953
 H         -0.5922126746       -4.3134489937       -2.5210084224
 H          2.5120438227       -4.2816413612       -2.4038622248
 H          1.4058432411       -4.9446432023       -1.1326344958
 H          1.4473945918       -2.0194607222       -2.1498938136
