  62
        -98.94070109
 C         -2.2835860506       -1.0468098888       -0.0266448192
 C         -1.9995673110        0.2254504317       -0.5798856444
 C         -2.6645372823        1.3663986747        0.0636514590
 C         -3.4412181880        1.1755116836        1.1442933590
 C         -4.1553706316        2.2437715728        1.9267897565
 C         -5.5077098128        2.6578520017        1.3300403311
 C         -5.4275952522        3.4909757992        0.0501874457
 H         -6.4263908999        3.8919420162       -0.1331024995
 H         -4.7608893687        4.3386147767        0.2115993350
 C         -4.9759524987        2.7062266638       -1.1893760632
 H         -5.6281718142        2.9487030927       -2.0313013295
 H         -5.0812128380        1.6354231543       -1.0006921911
 C         -3.5407269796        2.9911870731       -1.6315658404
 H         -3.4547268918        4.0327799346       -1.9487499445
 H         -3.3148603727        2.3563950502       -2.4919980059
 C         -2.4835140424        2.7209612493       -0.5529838925
 H         -1.4970743991        2.7426558301       -1.0227074134
 H         -2.5201618918        3.4944892465        0.2138240646
 H         -6.0308972463        3.2449390999        2.0883018109
 H         -6.0964712565        1.7569596329        1.1426285804
 H         -3.5126966686        3.1197298431        2.0212934708
 H         -4.3295933840        1.8327431122        2.9236030871
 O         -3.6549176931       -0.0570081551        1.6761731715
 C         -3.1024427534       -1.1863150395        1.0994162561
 O         -3.4105608898       -2.2509930153        1.6722102269
 O         -1.2341677503        0.4306746184       -1.5606557540
 C         -1.7048706538       -2.3467785068       -0.5687932510
 C         -0.2931830182       -2.5296088777       -0.0644546582
 C          0.0195589667       -3.5398688098        0.8371495943
 C          1.3052512079       -3.6681935761        1.3340091414
 C          2.3030563037       -2.7909362620        0.9474530302
 C          1.9968478929       -1.7751758188        0.0519771176
 C          0.7125659999       -1.6576566463       -0.4563174824
 H          0.4774797312       -0.8538212629       -1.1385050169
 N          3.0014842194       -0.8530117483       -0.3358527899
 S          3.5155419821        0.1577831889        0.9211280665
 O          4.1866754609       -0.6497279694        1.9075523196
 O          2.4108150947        0.9611235222        1.4032848688
 C          4.6970929677        1.1821952724        0.0669676711
 C          6.0028183190        0.7452796467       -0.0458499808
 C          6.9123693937        1.5269807356       -0.7400975993
 C          6.5027782121        2.7238465870       -1.3086999793
 C          5.1884217269        3.1489895091       -1.1871025532
 C          4.2736533071        2.3715343561       -0.4943717323
 H          3.2441958283        2.6678946845       -0.3673299604
 H          4.8722073940        4.0806593421       -1.6281410429
 H          7.2121539969        3.3313181231       -1.8481764427
 H          7.9355241241        1.2012707775       -0.8355516123
 H          6.2759434511       -0.1874746563        0.4187919097
 H          2.6543237818       -0.2562547624       -1.0781289316
 H          3.3010045882       -2.8634187399        1.3473630213
 H          1.5318342873       -4.4566276374        2.0359320731
 H         -0.7598450991       -4.2123760342        1.1658842227
 H         -2.3198885099       -3.1472835745       -0.1364793811
 C         -1.7776400418       -2.4490427937       -2.0795791302
 C         -1.7042230576       -3.8018630383       -2.7184779273
 C         -2.9968019783       -3.0433129711       -2.7150117746
 H         -3.3517669529       -2.6199709509       -3.6426092896
 H         -3.7864636202       -3.3830670028       -2.0603873236
 H         -1.1693661093       -3.9024239494       -3.6502357375
 H         -1.6178458284       -4.6580331680       -2.0666065348
 H         -1.3054183242       -1.6221623224       -2.5925457846
