  62
        -98.93479589
 C         -2.3019607862       -0.9246121150        0.0738972940
 C         -3.1019862987       -0.3041253420        1.0666581850
 C         -4.0126335669        0.7673178336        0.6287910897
 C         -4.0512903988        1.1037546484       -0.6735856543
 C         -4.8354694167        2.1709342944       -1.4083964381
 C         -6.0005714843        2.8874776613       -0.7312368380
 C         -7.2208393521        2.0076544021       -0.4611129781
 H         -7.9413533504        2.5900737198        0.1170805117
 H         -7.6864992008        1.7577987481       -1.4178132680
 C         -6.9403802651        0.6968977595        0.2695702699
 H         -7.8899737828        0.1661900169        0.3799449379
 H         -6.2903836185        0.0676800740       -0.3420153036
 C         -6.3254372296        0.8416983135        1.6600833562
 H         -6.3227748378       -0.1485399615        2.1235155987
 H         -6.9501276347        1.4952080803        2.2719647843
 C         -4.8817024879        1.3714220274        1.6940601602
 H         -4.4380203780        1.0809710369        2.6507282622
 H         -4.8575906471        2.4571217935        1.6394822025
 H         -6.3131917489        3.6844812891       -1.4114095573
 H         -5.6657303857        3.3681720115        0.1831583269
 H         -4.0978025891        2.9212050759       -1.7141306890
 H         -5.1916479732        1.6985067572       -2.3294924438
 O         -3.2602693402        0.4818079076       -1.5950307124
 C         -2.3735511008       -0.5328500778       -1.2616239470
 O         -1.7347705156       -0.9703778505       -2.2379867454
 O         -3.0553432974       -0.6343312454        2.2815456042
 C         -1.3707892424       -2.0285328353        0.5418898911
 C          0.0105314505       -1.4988285887        0.8327187166
 C          0.6641370695       -1.8146449578        2.0177836490
 C          1.9400753893       -1.3389112050        2.2660270291
 C          2.5867629547       -0.5369491153        1.3428819654
 C          1.9420529550       -0.2143473899        0.1557317434
 C          0.6649109810       -0.6966283045       -0.0918879290
 H          0.1741934774       -0.4550187998       -1.0237376903
 N          2.5822995205        0.6131296766       -0.7846575691
 S          4.1241379366        0.1720523617       -1.2877838047
 O          4.2855056722        0.7691736370       -2.5951343564
 O          4.3158405718       -1.2575003469       -1.2043224562
 C          5.2005662827        1.0008551072       -0.1365054831
 C          6.1203107508        0.2737840231        0.5935274486
 C          6.9533177979        0.9423419369        1.4773640519
 C          6.8524915076        2.3183146184        1.6141959822
 C          5.9255461637        3.0342846581        0.8711129054
 C          5.0911495042        2.3723518139       -0.0153013149
 H          4.3614283391        2.8911106148       -0.6143786689
 H          5.8501200284        4.1042424552        0.9799618631
 H          7.5004126845        2.8363799515        2.3034525234
 H          7.6753482590        0.3878414005        2.0549081096
 H          6.1586424968       -0.7952215970        0.4574432660
 H          2.0014790393        0.8269446380       -1.5832747997
 H          3.5790852600       -0.1615089777        1.5318000382
 H          2.4360660504       -1.5922781454        3.1903796867
 H          0.1613954899       -2.4291394894        2.7500875007
 H         -1.8000826754       -2.3678137924        1.4977900456
 C         -1.3514297763       -3.2283386324       -0.3965482347
 C         -0.1748515025       -3.6073896655       -1.2404289559
 C         -0.5402573712       -4.4421695740       -0.0519053572
 H         -0.9721271416       -5.4177786952       -0.2152423326
 H          0.1032595428       -4.3805392194        0.8126477151
 H         -0.3731961190       -3.9901566249       -2.2301750809
 H          0.7175760435       -3.0026439044       -1.1861831880
 H         -2.3271769891       -3.4075621255       -0.8374831238
