  62
        -98.94438080
 C         -2.3581473774       -1.1308574324        0.2356096562
 C         -2.3808123969        0.1497458139       -0.3684528952
 C         -3.3846220762        1.0844470692        0.1580824430
 C         -4.1823723847        0.7132924159        1.1753683883
 C         -5.2364057076        1.5620727874        1.8329261469
 C         -6.5838418133        1.5655345123        1.0978046596
 C         -6.6088665734        2.3538868452       -0.2122853693
 H         -6.2202705070        3.3578154131       -0.0384174180
 H         -7.6558445456        2.4558018006       -0.5045673737
 C         -5.8378410754        1.6938266546       -1.3638703481
 H         -6.4439160184        1.7234648354       -2.2721293201
 H         -5.6632200812        0.6412903635       -1.1294760827
 C         -4.4991278287        2.3552409697       -1.6920157400
 H         -4.6706077819        3.3708692708       -2.0557221537
 H         -4.0228485398        1.7864568418       -2.4946979947
 C         -3.5203193047        2.4185502081       -0.5120326096
 H         -3.8431846918        3.1735237722        0.2046639498
 H         -2.5356828599        2.7001218700       -0.8945420470
 H         -7.3218671796        2.0030783842        1.7739498404
 H         -6.8798320437        0.5315742270        0.9066022583
 H         -5.3899513966        1.1471309195        2.8313979325
 H         -4.8723820630        2.5849157557        1.9342821829
 O         -4.1033243882       -0.5142314192        1.7539565294
 C         -3.2045359992       -1.4622771958        1.2968986903
 O         -3.2521909463       -2.5482330927        1.9083512443
 H          0.5322252398       -0.8902248794       -1.6900599492
 C          0.8531834536       -1.0906031233       -0.6804020016
 C          0.0115387005       -1.7645510527        0.1896289552
 C          0.4366352542       -1.9779644542        1.4981852749
 C          1.6753817047       -1.5323332155        1.9182957977
 C          2.5125142442       -0.8561803076        1.0469994709
 C          2.0893139189       -0.6214986180       -0.2535548369
 N          2.9245968013        0.0715718921       -1.1453423558
 S          3.7001510432        1.4600517295       -0.6118258482
 O          2.9546094114        2.1327840378        0.4268598683
 O          3.9697359048        2.2251726747       -1.8098921542
 C          5.2425936120        0.8493820800        0.0386402556
 C          6.0112165938        0.0322557611       -0.7671927939
 C          7.2169345605       -0.4458632305       -0.2798158126
 C          7.6334656736       -0.0987716060        0.9968231274
 C          6.8528036213        0.7260031969        1.7919711656
 C          5.6450875725        1.2071470037        1.3103767877
 H          5.0025098825        1.8460976257        1.8953859108
 H          7.1781131536        0.9957725713        2.7838926397
 H          8.5718146101       -0.4731666083        1.3744391905
 H          7.8266646580       -1.0873936899       -0.8954343778
 H          5.6530391603       -0.2121825091       -1.7531374076
 H          2.5040864557        0.2236641509       -2.0510598198
 H          3.4744310338       -0.4950809248        1.3719993363
 H          1.9934246423       -1.7089732968        2.9346207145
 H         -0.2267251517       -2.4861708244        2.1845388189
 C         -1.3757327645       -2.2026288758       -0.2120964412
 H         -1.6282239023       -3.1008413912        0.3667439583
 C         -1.5189048673       -2.5186962412       -1.6861822469
 C         -0.9011845420       -3.7708338857       -2.2297189601
 C         -2.3906261487       -3.6620936837       -2.1062670860
 H         -2.9778003197       -3.5575888632       -3.0064271084
 H         -2.8829695545       -4.2270411635       -1.3281263117
 H         -0.3806249533       -4.4104282165       -1.5332279135
 H         -0.4639765920       -3.7451465801       -3.2161238084
 H         -1.5243584585       -1.6389997335       -2.3174729730
 O         -1.6154857838        0.5065612031       -1.3030609591
