  62
        -98.94155380
 C          0.5152051744        1.6436708813        0.1866808105
 C          1.2891746009        0.7182129489        0.9225531651
 C          2.3239816959       -0.0015844994        0.1684373165
 C          2.4426575941        0.2027636212       -1.1559454151
 C          3.3808297294       -0.5089074475       -2.0959189677
 C          4.8876753183       -0.2722823150       -1.8770949771
 C          5.5696884824       -1.3199821782       -0.9886511897
 H          4.9885086278       -2.2422814105       -1.0268271762
 H          6.5509466678       -1.5505542350       -1.4083558786
 C          5.7907137022       -0.9119690169        0.4707943742
 H          6.6475843926       -0.2367815433        0.5256085862
 H          6.0445067869       -1.8120173159        1.0347329337
 C          4.6136151796       -0.2143712977        1.1522794140
 H          4.8269285980       -0.1541235954        2.2212306287
 H          4.5384858306        0.8146622027        0.7933879701
 C          3.2487268358       -0.8981763130        0.9405045076
 H          3.3714782930       -1.8551407002        0.4341729776
 H          2.7695756750       -1.0721129880        1.9059264625
 H          5.3565747042       -0.3029097391       -2.8619462695
 H          5.0431246377        0.7292024243       -1.4768391157
 H          3.1048489012       -0.1616476738       -3.0940021233
 H          3.1694396148       -1.5804403300       -2.0522971710
 O          1.6605150781        1.0871156562       -1.8325119441
 C          0.6793763063        1.8219631996       -1.1871969656
 O          0.0414327277        2.5924275922       -1.9307278541
 O          1.1145518682        0.4909343229        2.1504142398
 C         -0.6049113372        2.3904985352        0.8896465120
 C         -1.9161028458        2.0057958396        0.2498405369
 C         -2.8889454140        2.9158589829       -0.1400680561
 C         -4.0364375761        2.4776730767       -0.7795193177
 C         -4.2281181076        1.1370967977       -1.0578560983
 C         -3.2665417490        0.2164726693       -0.6549919622
 C         -2.1418661001        0.6538915456        0.0217841589
 H         -1.3981613618       -0.0638283610        0.3354574748
 N         -3.4201775970       -1.1545695830       -0.9056880406
 S         -2.0737687549       -2.1135622666       -1.1667572996
 O         -1.0154765506       -1.4093844285       -1.8535193329
 O         -2.6002050484       -3.2797828365       -1.8474611704
 C         -1.5589917020       -2.5959738532        0.4669491355
 C         -0.2170298785       -2.5844292303        0.7888483556
 C          0.1723847182       -2.9955244452        2.0535596465
 C         -0.7829926928       -3.4060143754        2.9697279386
 C         -2.1275343885       -3.4138827036        2.6302101080
 C         -2.5227714642       -3.0095286245        1.3655945117
 H         -3.5565633700       -3.0032687675        1.0632688074
 H         -2.8672277762       -3.7323670029        3.3469894126
 H         -0.4752744047       -3.7188621144        3.9550067738
 H          1.2171694730       -2.9836651140        2.3184452218
 H          0.4930238133       -2.2350952589        0.0542920102
 H         -4.1899501770       -1.3995055317       -1.5110029922
 H         -5.1075830837        0.8027981935       -1.5867219956
 H         -4.7830820120        3.1946917083       -1.0857589589
 H         -2.7429389488        3.9682956750        0.0395763030
 H         -0.6003282058        2.0189182526        1.9252741212
 C         -0.3451133194        3.8813018392        0.9019096594
 C         -0.9051316669        4.7344299952        1.9998656146
 C          0.5647693258        4.4491256733        1.9484128876
 H          1.2377114357        5.2457336581        1.6687049992
 H          0.9795009489        3.7604986729        2.6699142530
 H         -1.2407782399        5.7314612394        1.7577327301
 H         -1.4890897214        4.2444270680        2.7639817174
 H         -0.2842693242        4.3003426287       -0.0963133909
