  62
        -98.94459390
 C         -2.0458243201       -0.2795414601       -0.1583924490
 C         -3.0257864501       -0.8739792886        0.6745882822
 C         -4.2460844900       -0.0884207082        0.8967598509
 C         -4.3485371401        1.1354623508        0.3470527287
 C         -5.5559774901        2.0209107110        0.4476105672
 C         -6.5205212802        1.7780067589       -0.7218808123
 C         -6.8402392302        0.3026794984       -0.9636033496
 H         -7.5509920303        0.2558470869       -1.7915450294
 H         -5.9324834502       -0.2097813422       -1.2902157287
 C         -7.4242215101       -0.4283731794        0.2533762118
 H         -7.8033249500        0.2968558719        0.9743075905
 H         -8.2726104401       -1.0324331400       -0.0751741570
 C         -6.4477641600       -1.3755090581        0.9531700734
 H         -5.9964351801       -2.0452146095        0.2168270246
 H         -7.0164942200       -1.9939221469        1.6526527146
 C         -5.3209689200       -0.7037254367        1.7480403321
 H         -5.7427682499        0.0360007145        2.4314484908
 H         -4.8262394399       -1.4776401456        2.3421253634
 H         -7.4444959502        2.3253356992       -0.5264999431
 H         -6.0709003303        2.1842380372       -1.6309598930
 H         -6.0606036600        1.8333157926        1.3933900076
 H         -5.2236449401        3.0601307009        0.4234418553
 O         -3.3704961402        1.6902781394       -0.4124623124
 C         -2.1999258302        0.9993227989       -0.6935541613
 O         -1.4024305003        1.6239957276       -1.4184475525
 H          1.2366306997        0.4595990674       -1.5671081706
 C          1.3164523498        0.3879604693       -0.4941580505
 C          0.3838030099       -0.3449219794        0.2221469109
 C          0.5045738100       -0.4045050669        1.6082928510
 C          1.5253480801        0.2613582443        2.2593179997
 C          2.4485487000        1.0022770730        1.5419152183
 C          2.3365634599        1.0673505405        0.1598882482
 N          3.2788590198        1.8100313192       -0.5723934032
 S          4.8957616098        1.5484850898       -0.2316830929
 O          5.2744090899        2.2975984519        0.9405863057
 O          5.6026352997        1.8809816476       -1.4485803836
 C          5.0084250399       -0.2003433796        0.1050675302
 C          4.7051687098       -1.0776485414       -0.9174238482
 C          4.7346452598       -2.4389194110       -0.6636993958
 C          5.0617776399       -2.8976667187        0.6033452350
 C          5.3679638400       -2.0044842169        1.6179206034
 C          5.3396843600       -0.6413290873        1.3697325910
 H          5.5692131001        0.0870589141        2.1301558396
 H          5.6238815901       -2.3643073851        2.6014302140
 H          5.0787112200       -3.9581113383        0.7996814169
 H          4.4986180098       -3.1357803324       -1.4519188045
 H          4.4605217097       -0.6876787032       -1.8923083589
 H          3.1056549497        1.8233756074       -1.5664613932
 H          3.2455823901        1.5387268939        2.0307972172
 H          1.6039573902        0.2068214362        3.3344194498
 H         -0.2225923499       -0.9756410759        2.1686028221
 C         -0.7703497702       -1.0576914906       -0.4364542077
 H         -0.9059993001       -2.0227946297        0.0707345340
 C         -0.5787918703       -1.3073014932       -1.9172910473
 C          0.3942706597       -2.3547083040       -2.3675490555
 C         -1.0788812503       -2.5876234143       -2.5129898149
 H         -1.5118039604       -2.5604204961       -3.5018836450
 H         -1.5538314203       -3.2949500231       -1.8491109636
 H          0.9740338596       -2.1716344656       -3.2594251359
 H          0.9211195397       -2.9033799627       -1.6018537046
 H         -0.6784932504       -0.4107516543       -2.5178568489
 O         -2.8859456800       -2.0085788177        1.2042058342
