  62
        -98.93995799
 C         -1.7926869836       -1.6278547252       -0.0129888221
 C         -1.6216345845       -0.4882453269       -0.8297600661
 C         -2.7455380594        0.4690959591       -0.8812798156
 C         -3.8475742592        0.2149209851       -0.1516681491
 C         -5.0618213009        1.0877917451        0.0088415586
 C         -4.8088785908        2.2713554126        0.9623197868
 C         -3.4394237020        2.9354988824        0.8285157372
 H         -3.3286815731        3.6375085799        1.6591616878
 H         -2.6623745352        2.1765384769        0.9415439958
 C         -3.2156084412        3.7097963625       -0.4685701109
 H         -2.2120715688        4.1413856280       -0.4295110636
 H         -3.9285901568        4.5363002546       -0.5159546190
 C         -3.3413763803        2.8998703748       -1.7587695541
 H         -2.9932741567        3.5355566530       -2.5784955283
 H         -4.3835326648        2.6723800482       -1.9663770796
 C         -2.4966350205        1.6292234762       -1.8151048640
 H         -2.5653302921        1.2176940572       -2.8302597308
 H         -1.4417385015        1.8946575855       -1.6840433162
 H         -5.5928602123        3.0142307714        0.8080543184
 H         -4.8939021532        1.8988595108        1.9858495986
 H         -5.4002739074        1.4316645110       -0.9642240310
 H         -5.8496514893        0.4617743888        0.4329497028
 O         -3.9701066684       -0.8999261593        0.6226445127
 C         -2.9657373085       -1.8414803080        0.7129664700
 O         -3.2262959420       -2.8066416480        1.4592972722
 O         -0.5738099124       -0.2578768878       -1.4899416433
 C         -0.6839349312       -2.6575823378        0.1368100839
 C          0.4505450391       -2.0329809360        0.9141744767
 C          0.2418403297       -1.7486020442        2.2627463142
 C          1.2341032390       -1.1663694665        3.0260048206
 C          2.4537656501       -0.8438120821        2.4555367164
 C          2.6705095375       -1.1161927746        1.1110700225
 C          1.6744816613       -1.7140162622        0.3475250213
 H          1.8683859769       -1.9024793826       -0.6949149215
 N          3.9071296079       -0.8074719486        0.5103436154
 S          3.9225355497        0.2314458470       -0.8065527166
 O          3.2721435092       -0.3876069876       -1.9297689333
 O          5.3193587572        0.5683808370       -0.9848135863
 C          3.0342981047        1.6657164110       -0.2271066237
 C          3.7604582912        2.6848774080        0.3594902917
 C          3.0859131710        3.7652260461        0.9035253999
 C          1.6999689922        3.8002749209        0.8666268655
 C          0.9879886793        2.7676423309        0.2773630546
 C          1.6553796245        1.6865518615       -0.2790686643
 H          1.1203574639        0.8769564495       -0.7522797366
 H         -0.0906668020        2.7891110899        0.2493836157
 H          1.1708881339        4.6356645532        1.2976820624
 H          3.6391665293        4.5713683584        1.3578850800
 H          4.8363846655        2.6149393342        0.3649617936
 H          4.6085438065       -0.5048037970        1.1726197641
 H          3.2331249302       -0.3880400506        3.0474748804
 H          1.0582942521       -0.9583852893        4.0704712327
 H         -0.7154333334       -1.9962657023        2.7012182945
 H         -1.1080246300       -3.4613949334        0.7553630087
 C         -0.2704270412       -3.2426023303       -1.1955968872
 C          0.4395566979       -4.5613412861       -1.2291708697
 C         -0.9773607122       -4.4602094811       -1.7068026649
 H         -1.1726886185       -4.5359409454       -2.7660523454
 H         -1.7566811601       -4.8816779954       -1.0881659168
 H          1.2210048144       -4.7065649913       -1.9596349630
 H          0.6220435719       -5.0541162368       -0.2859688383
 H          0.0165126159       -2.4944375915       -1.9245039791
