  62
        -98.94361708
 C         -1.7962575839       -0.8804460084        0.8167225555
 C         -1.9900547160       -0.3980220915       -0.5001347948
 C         -3.3849897841       -0.3514738526       -0.9624595846
 C         -4.3662295749       -0.7749796711       -0.1449779061
 C         -5.8311465972       -0.7286735550       -0.4681257589
 C         -6.4624571548        0.5875374168        0.0070739665
 C         -5.6841333120        1.8339219818       -0.4148198973
 H         -6.2380398032        2.7017997102       -0.0501608142
 H         -4.7147177126        1.8371583529        0.0889657938
 C         -5.4671494006        1.9648292837       -1.9288271867
 H         -6.1706205361        1.3230073043       -2.4604599418
 H         -5.6803586093        2.9941637749       -2.2248053326
 C         -4.0438443166        1.6526942248       -2.3949665792
 H         -3.3286221674        2.2250969935       -1.7986678933
 H         -3.9457893936        1.9852886115       -3.4317670222
 C         -3.6353679790        0.1749609827       -2.3475381992
 H         -4.3836725251       -0.4308812114       -2.8623644518
 H         -2.6850361817        0.0764987683       -2.8799790501
 H         -7.4805884148        0.6428169864       -0.3825483561
 H         -6.5169502346        0.5712082347        1.0981334872
 H         -5.9651097267       -0.8410572068       -1.5421523921
 H         -6.3221003316       -1.5606627315        0.0395242916
 O         -4.1366918288       -1.2532357600        1.1052906768
 C         -2.8523873986       -1.3037644043        1.6224036684
 O         -2.7831585569       -1.7356711134        2.7914290975
 H          2.0994737390       -0.1812755618        0.5001349787
 C          1.5140562170        0.6438073175        0.8673448345
 C          0.2379003679        0.4264244843        1.3601787721
 C         -0.4836544443        1.5141664050        1.8463309877
 C          0.0540862210        2.7857677729        1.8210761858
 C          1.3256638508        3.0002208465        1.3181862281
 C          2.0581758555        1.9213449944        0.8390909461
 N          3.3315756361        2.1136612723        0.2920262309
 S          4.5119480703        0.9389021281        0.3618262380
 O          4.5143055172        0.2548753908        1.6341576560
 O          5.7327150893        1.6390284076        0.0222159142
 C          4.1106538319       -0.1999966156       -0.9467982651
 C          3.5841099349        0.2830747104       -2.1278805454
 C          3.2982090020       -0.6110380858       -3.1470602203
 C          3.5479841475       -1.9635828245       -2.9727705220
 C          4.0844493923       -2.4321138826       -1.7835492232
 C          4.3704676167       -1.5433162759       -0.7594521661
 H          4.7783661301       -1.8645952010        0.1860897120
 H          4.2775639791       -3.4848057711       -1.6499447641
 H          3.3209312391       -2.6570042325       -3.7672374851
 H          2.8759169095       -0.2507489857       -4.0712769016
 H          3.3927034578        1.3381249790       -2.2299185838
 H          3.7018990489        3.0497657298        0.3527973456
 H          1.7448518991        3.9945202358        1.2924600754
 H         -0.5195823119        3.6195678867        2.1975724117
 H         -1.4775654703        1.3469454035        2.2399631010
 C         -0.3937199893       -0.9439643614        1.3937450111
 H         -0.5081463886       -1.2408443905        2.4468762771
 C          0.4154864547       -2.0028849351        0.6739249028
 C          1.5316294968       -2.7112372188        1.3787928572
 C          0.2545275815       -3.4358196612        1.0797502427
 H          0.2589878392       -4.1932808645        0.3106833704
 H         -0.4208163382       -3.6463143751        1.8965111605
 H          1.7350001645       -2.4329463970        2.4020640802
 H          2.4130638504       -2.9713093585        0.8126786615
 H          0.5307261301       -1.7917542468       -0.3832968119
 O         -1.0512692195       -0.0248627668       -1.2497616907
