  62
        -98.94478835
 C          1.8539351669        0.7461957891        0.4151576418
 C          2.4638148950        0.1639919626       -0.7225575452
 C          3.5196943254       -0.8182574693       -0.4435952651
 C          3.8120194714       -1.1465235020        0.8278588876
 C          4.8413338956       -2.1513091706        1.2695319091
 C          6.2687037642       -1.5921439069        1.3446070454
 C          6.9375014955       -1.3313221055       -0.0056065171
 H          7.9964551930       -1.1526312878        0.1912319482
 H          6.8682894983       -2.2274755205       -0.6230832762
 C          6.3683162320       -0.1295579364       -0.7726029861
 H          5.7948104195        0.5004705379       -0.0888434809
 H          7.1898103514        0.4796969553       -1.1560185300
 C          5.4840685484       -0.4989278470       -1.9637691698
 H          6.0815800888       -1.0161108982       -2.7177894280
 H          5.1055643555        0.4244561338       -2.4093272281
 C          4.2798018750       -1.3800853190       -1.6066807324
 H          3.6030326310       -1.4026797124       -2.4645594065
 H          4.6076100997       -2.3974749666       -1.3936009940
 H          6.2516900404       -0.6683380503        1.9274548631
 H          6.8740949363       -2.3187683638        1.8914006583
 H          4.5471474457       -2.4789204215        2.2691618087
 H          4.8214003775       -3.0136524139        0.6023252617
 O          3.1640193396       -0.6017278561        1.8926044127
 C          2.1847966558        0.3631331498        1.7141591842
 O          1.6795471835        0.7848970941        2.7753724221
 H         -0.4181910631       -0.5181972008        0.7773019943
 C         -0.8922511262       -0.0334806999       -0.0678333518
 C         -0.4032196288        1.1924872698       -0.5034911334
 C         -1.0313280485        1.8113146721       -1.5756318485
 C         -2.0969854227        1.1979474514       -2.2130374747
 C         -2.5649899770       -0.0325738435       -1.7921144646
 C         -1.9572356097       -0.6499525403       -0.7053802352
 N         -2.4355588877       -1.8912280443       -0.2540810557
 S         -4.0907303992       -2.1016417106       -0.1342955687
 O         -4.2720180145       -3.0898941451        0.9060424511
 O         -4.6310211269       -2.4446527266       -1.4262943572
 C         -4.7331387849       -0.5194587012        0.3839330741
 C         -4.2637387420        0.0204224560        1.5650896864
 C         -4.7307540667        1.2611349340        1.9669229654
 C         -5.6553203987        1.9372286378        1.1852772591
 C         -6.1213911431        1.3791256021        0.0053088674
 C         -5.6557018615        0.1394094479       -0.4028335660
 H         -5.9875303146       -0.3299029435       -1.3146003883
 H         -6.8416339177        1.9061985187       -0.5992450332
 H         -6.0135796025        2.9046039791        1.4999691601
 H         -4.3680115796        1.6959140558        2.8845860098
 H         -3.5471940094       -0.5301391005        2.1539294946
 H         -1.9580410263       -2.2452476932        0.5611618719
 H         -3.3801815251       -0.5310246170       -2.2910074967
 H         -2.5671469282        1.6840874062       -3.0539499915
 H         -0.6801373109        2.7692563603       -1.9213774561
 C          0.7667940575        1.7914195901        0.2399962729
 H          0.4269849796        2.0481389254        1.2541124290
 C          1.3322404681        3.0344682089       -0.4140461536
 C          0.7276021936        4.3763332196       -0.1334886195
 C          2.0688470028        4.0251450598        0.4349090985
 H          2.9465505495        4.5031444793        0.0263025786
 H          2.1399305037        3.8159021293        1.4927396829
 H          0.6860827763        5.1008508688       -0.9326557634
 H         -0.1132145748        4.4146292446        0.5422483714
 H          1.7199274959        2.8421456322       -1.4076400656
 O          2.1447088631        0.4435828895       -1.9064678313
