  62
        -98.93771834
 C          2.0710583129        1.1146206510        0.0050328629
 C          2.8192903721        0.4246416326        0.9867882033
 C          3.5424352861       -0.7685988613        0.5276336136
 C          3.4225960702       -1.1659316870       -0.7520511174
 C          4.0368351261       -2.3922857678       -1.3740830439
 C          5.5754622120       -2.4173934225       -1.4567262535
 C          6.2601299633       -3.1273522053       -0.2822581171
 H          5.5572256981       -3.8367962890        0.1564056245
 H          7.0972287585       -3.7133866858       -0.6669096317
 C          6.8195528943       -2.2161413634        0.8144991037
 H          7.7605398741       -1.7810491501        0.4704934960
 H          7.0433851826       -2.8384828400        1.6835790248
 C          5.9157658257       -1.0628947720        1.2508220499
 H          6.3375383106       -0.6236290084        2.1569469099
 H          5.9297011677       -0.2775954030        0.4913828220
 C          4.4480491464       -1.4562538384        1.5078608629
 H          4.3228752537       -2.5368538179        1.4536646782
 H          4.1414544476       -1.1237020679        2.5017868281
 H          5.8326906531       -2.9504013775       -2.3733590034
 H          5.9503169500       -1.3994173199       -1.5590483652
 H          3.6236259600       -2.4420199770       -2.3837004754
 H          3.6880406179       -3.2729752139       -0.8294179545
 O          2.6599795738       -0.4938646977       -1.6578041602
 C          1.9740674603        0.6607444721       -1.3107673921
 O          1.3286939736        1.1738929778       -2.2435661691
 O          2.8683204032        0.7796829656        2.1961668200
 C          1.2922878017        2.3547632356        0.4078450539
 C         -0.1815208249        2.1017518956        0.2044667576
 C         -1.0187457712        2.9406680318       -0.5176047705
 C         -2.3531088681        2.6150050090       -0.6933902159
 C         -2.8812532641        1.4582272209       -0.1510504827
 C         -2.0541541095        0.6163487701        0.5815420361
 C         -0.7207521776        0.9463419802        0.7582821580
 H         -0.0753802104        0.2849239976        1.3244327771
 N         -2.5838437979       -0.5619626363        1.1451430249
 S         -3.3029755649       -1.6507203918        0.0824159118
 O         -3.2019597140       -2.9382654719        0.7359755505
 O         -2.7340183368       -1.5560679207       -1.2425031897
 C         -5.0097586166       -1.1453409231        0.0579001234
 C         -5.6082036251       -0.7989542819       -1.1375118773
 C         -6.9391080180       -0.4106653003       -1.1319003095
 C         -7.6431297469       -0.3766448184        0.0620905064
 C         -7.0274835766       -0.7298080674        1.2538952810
 C         -5.6978789348       -1.1198985151        1.2553486993
 H         -5.1821363925       -1.4058767637        2.1567612283
 H         -7.5783180256       -0.7020198107        2.1801679623
 H         -8.6780405221       -0.0729814355        0.0635069651
 H         -7.4190173063       -0.1358025993       -2.0574036203
 H         -5.0177901774       -0.8347553129       -2.0393493227
 H         -1.9221599857       -1.0495378765        1.7332198946
 H         -3.9176019342        1.1987196488       -0.2931771526
 H         -2.9905088031        3.2717511570       -1.2654233059
 H         -0.6245655176        3.8424795888       -0.9558924435
 H          1.4737071267        2.4758820099        1.4861765307
 C          1.8114065963        3.5782690537       -0.3157669387
 C          1.6508571134        4.9373724918        0.2952404966
 C          3.0038964150        4.2963439513        0.2388815663
 H          3.7352112723        4.6895721714       -0.4511864243
 H          3.4302633086        3.9154644684        1.1555085745
 H          1.4549271944        5.7754435902       -0.3562060032
 H          1.1590199914        4.9984475411        1.2540891370
 H          1.7395881973        3.4861904545       -1.3935514626
