  62
        -98.93286206
 C         -1.9810215003       -1.0096766797        0.4504528206
 C         -2.7253474802       -0.0275800694        1.1522961302
 C         -4.1434896602        0.1023322206        0.7967299801
 C         -4.6642607702       -0.7008995897       -0.1478603596
 C         -6.0993137202       -0.7471145497       -0.6017332596
 C         -6.6308457201        0.5160699401       -1.3058808001
 C         -7.3443290400        1.5051177605       -0.3758390605
 H         -8.2201869800        1.9032696804       -0.8922907706
 H         -7.7145571001        0.9636323408        0.4956187897
 C         -6.5137092599        2.7069539606        0.0844728091
 H         -6.4619863398        3.4367318903       -0.7268698212
 H         -7.0413002799        3.1785325709        0.9164794689
 C         -5.0791305200        2.4026837506        0.5172760492
 H         -4.6739042899        3.2926401707        1.0032099789
 H         -4.4584473200        2.2252197502       -0.3644541607
 C         -4.9335294101        1.1924565209        1.4600475197
 H         -4.3759669401        1.4818947212        2.3531481996
 H         -5.9111828001        0.8251308211        1.7688888298
 H         -5.8146088600        1.0093527998       -1.8331255003
 H         -7.3459615401        0.1809382199       -2.0588509700
 H         -6.1586850603       -1.5912876900       -1.2917698193
 H         -6.7319844203       -0.9748982593        0.2592096904
 O         -3.9188757003       -1.6327653300       -0.7981229593
 C         -2.5635273403       -1.8040757800       -0.5382365992
 O         -2.0295485604       -2.6797603303       -1.2415303588
 H          1.3173576199        0.6657526604        1.6273690500
 C          1.2574349599        0.6056283800        0.5490831200
 C          0.3477220598       -0.2629206601       -0.0360055797
 C          0.2719073798       -0.3142949806       -1.4243657597
 C          1.0848779499        0.4904415990       -2.2019808699
 C          1.9913527900        1.3559152392       -1.6144480702
 C          2.0771765800        1.4118145797       -0.2301907802
 N          3.0252446700        2.2674720398        0.3672705295
 S          4.6255886200        1.9661122195       -0.0419442704
 O          5.4133701300        2.5684815798        1.0088902994
 O          4.8722418801        2.4432453590       -1.3782802106
 C          4.7490580598        0.1881745095        0.0140716203
 C          4.8866289398       -0.4185002201        1.2469992005
 C          4.8829839596       -1.8020062200        1.3176977810
 C          4.7275271096       -2.5514506504        0.1614458713
 C          4.5925023797       -1.9272423009       -1.0684896190
 C          4.6028075498       -0.5437443909       -1.1469870695
 H          4.5044556499       -0.0220209112       -2.0844634797
 H          4.4720141696       -2.5131282712       -1.9653793888
 H          4.7080207695       -3.6278076504        0.2200694117
 H          4.9911548696       -2.2912799097        2.2723540212
 H          5.0060816798        0.1992366902        2.1228841903
 H          2.9324099800        2.3266292502        1.3715998694
 H          2.6378280801        1.9844458089       -2.2054948304
 H          1.0134071299        0.4422804586       -3.2781130899
 H         -0.4262198402       -0.9972584807       -1.8843679094
 C         -0.5170027903       -1.1443294997        0.8278262906
 H         -0.4624897303       -0.7508538993        1.8553186305
 C         -0.0281726204       -2.5863235697        0.8680523012
 C          1.0012312995       -3.1409381602       -0.0663348386
 C          1.3547652795       -2.8870837397        1.3660351313
 H          1.4957850894       -3.7290737895        2.0260349616
 H          1.9990428096       -2.0459378397        1.5747865110
 H          0.8704468594       -4.1587124103       -0.3997820382
 H          1.4191930496       -2.4877588205       -0.8157929588
 H         -0.8144094005       -3.2693335496        1.1721733214
 O         -2.2244550402        0.6992904109        2.0529116699
