  62
        -98.94033864
 C         -1.0316688062       -1.5536194814       -0.2114438633
 C         -1.1405338987       -0.1635334497       -0.4538711456
 C         -2.2358242033        0.5378101691        0.2428277952
 C         -3.0089275011       -0.1366031899        1.1092099666
 C         -4.1882152535        0.3844292822        1.8830847579
 C         -5.4984845797        0.1116150259        1.1248554896
 C         -5.8905396093        1.1836921873        0.1086193263
 H         -6.7503505106        0.8036685426       -0.4478618371
 H         -6.2156238505        2.0797606556        0.6414725518
 C         -4.7951843783        1.5767400084       -0.8861637765
 H         -4.2804659247        0.6817243264       -1.2396898725
 H         -5.2788374002        2.0354647317       -1.7506533422
 C         -3.7780413528        2.5692155788       -0.3031989200
 H         -4.1730215324        2.9756699802        0.6278904341
 H         -3.6669227485        3.4132408590       -0.9867481837
 C         -2.3688026636        2.0048906037       -0.0616660747
 H         -1.7548671545        2.1577728747       -0.9545769195
 H         -1.8904940232        2.5673252627        0.7476706398
 H         -5.3977203135       -0.8540260704        0.6227498669
 H         -6.3098364855        0.0194541836        1.8497904718
 H         -4.2093530350       -0.1662529801        2.8260576721
 H         -4.0694998091        1.4421256121        2.0995339335
 O         -2.8363436223       -1.4633665238        1.3599296832
 C         -1.8648118636       -2.1967435507        0.7081917217
 O         -1.8421062243       -3.4051758636        1.0218201705
 H          1.4580656144       -0.2557220468       -0.2317227372
 C          1.9183044358       -1.1574178432        0.1365834124
 C          1.3151149324       -2.3831039166       -0.1034699452
 C          1.9273379180       -3.5349602586        0.3761196789
 C          3.1098852150       -3.4559752663        1.0902489326
 C          3.6897988200       -2.2289300712        1.3583679088
 C          3.0827090829       -1.0720651343        0.8835602007
 N          3.6321666010        0.1945811262        1.1314436146
 S          2.6067239067        1.4872408670        1.4267598336
 O          3.4253539511        2.4299691322        2.1658309984
 O          1.3944301043        1.0679329741        2.0941923545
 C          2.2524837198        2.1975117595       -0.1655194720
 C          1.1865214380        3.0690739058       -0.2474709372
 C          0.9080101916        3.6796943153       -1.4586492094
 C          1.6996533324        3.4094081291       -2.5630335559
 C          2.7692366897        2.5341146227       -2.4632449768
 C          3.0548095820        1.9220286308       -1.2532236541
 H          3.8720849336        1.2277000907       -1.1481387037
 H          3.3793797840        2.3202749250       -3.3263479452
 H          1.4767219787        3.8791536258       -3.5082791086
 H          0.0711761641        4.3555168844       -1.5367629455
 H          0.5883577656        3.2383932036        0.6339724828
 H          4.4345864814        0.2066267430        1.7440704336
 H          4.5997980796       -2.1642597255        1.9353866964
 H          3.5763439889       -4.3574425403        1.4578076454
 H          1.4608174477       -4.4937042476        0.2033023128
 C          0.0122856264       -2.4481358454       -0.8637243522
 H         -0.3756829346       -3.4722021341       -0.7728923898
 C          0.2382778315       -2.1486215896       -2.3332332081
 C          0.8041462549       -3.2199015853       -3.2141002595
 C         -0.6299733340       -2.8092579743       -3.3594239727
 H         -0.9217110402       -2.2404982430       -4.2292786193
 H         -1.3933254173       -3.4877421078       -3.0061942332
 H          1.0122766280       -4.1797950114       -2.7661914365
 H          1.5010700175       -2.9346474563       -3.9867907685
 H          0.5413870030       -1.1269874851       -2.5187644020
 O         -0.3826845869        0.4877560831       -1.2213649920
