  62
        -98.93882257
 C         -2.7916630613       -0.1503892234       -0.3451486401
 C         -2.8732330027        0.7728141510        0.7297107463
 C         -2.5006301576        2.1580065074        0.4325102545
 C         -2.1142535431        2.4878313437       -0.8127809786
 C         -1.6704534351        3.8489996210       -1.2734467373
 C         -0.1917871693        4.1358757304       -0.9760439547
 C          0.1276854621        4.4371829525        0.4889991204
 H          1.1325334538        4.8631876487        0.5164896500
 H         -0.5606494463        5.1952126735        0.8653082724
 C          0.0949414198        3.2062502217        1.4058622576
 H          0.1727060658        2.2970323196        0.8034288924
 H          0.9711712340        3.2124771459        2.0593929807
 C         -1.1363191225        3.1120417985        2.3077004312
 H         -1.1234731338        3.9325868532        3.0293456386
 H         -1.0745496852        2.1720999982        2.8627801944
 C         -2.4780142393        3.1397688485        1.5645415593
 H         -3.2632425981        2.8523648975        2.2684335752
 H         -2.6845617988        4.1454414465        1.1988432686
 H          0.4029591281        3.2782101888       -1.3013716028
 H          0.1022122236        4.9992630582       -1.5777249739
 H         -1.8180250640        3.8762329009       -2.3551839162
 H         -2.2940179041        4.6175846484       -0.8158212266
 O         -2.0926204582        1.5880760850       -1.8282074332
 C         -2.3745030925        0.2432265836       -1.6169086998
 O         -2.2283492629       -0.4584533805       -2.6365807116
 O         -3.2426262242        0.4444592075        1.8894916264
 C         -3.0344686106       -1.6084716172        0.0106282619
 C         -1.7426474529       -2.1590575624        0.5626527262
 C         -1.6801926399       -2.8194451317        1.7829626620
 C         -0.4612050241       -3.2041570417        2.3166668196
 C          0.7200498614       -2.9217414248        1.6532844937
 C          0.6630854127       -2.2809636212        0.4250581262
 C         -0.5568525713       -1.9206221787       -0.1189332421
 H         -0.5811165367       -1.4044775072       -1.0690712922
 N          1.8765820246       -1.9010288631       -0.2250396385
 S          2.2321091222       -0.2858615006        0.1643641519
 O          2.0260416534       -0.1159832870        1.5799412113
 O          1.5085144495        0.6112427604       -0.7127558862
 C          3.9750725942       -0.2256076917       -0.2036144936
 C          4.8416863212       -0.8586564507        0.6664288934
 C          6.1966612584       -0.8617797047        0.3783307001
 C          6.6596175424       -0.2372942587       -0.7706661035
 C          5.7775128843        0.3938394649       -1.6340849232
 C          4.4200606567        0.3990283509       -1.3516830707
 H          3.6980144869        0.8801012064       -1.9921646856
 H          6.1394472475        0.8800721603       -2.5257504222
 H          7.7147672904       -0.2411806521       -0.9939878694
 H          6.8859675905       -1.3506703254        1.0476613737
 H          4.4346083610       -1.3233891773        1.5489027540
 H          1.7710835117       -1.9345586637       -1.2321423466
 H          1.6780063597       -3.1727101703        2.0777047897
 H         -0.4306733696       -3.7053964924        3.2720287549
 H         -2.5929549454       -2.9994443547        2.3319740791
 H         -3.7643895747       -1.5882285256        0.8354966032
 C         -3.6270610022       -2.4457514736       -1.1102416166
 C         -2.8569142949       -3.5037055867       -1.8366719224
 C         -3.9328487814       -3.8951113613       -0.8715713325
 H         -4.8554187988       -4.2993964577       -1.2588129851
 H         -3.6241978538       -4.3173318765        0.0728222585
 H         -3.0365381601       -3.6129686645       -2.8951035683
 H         -1.8300607581       -3.6731285560       -1.5519381735
 H         -4.3435144458       -1.8847284040       -1.7003898870
