  62
        -98.94173580
 C         -2.2549240853       -1.1610269562        0.3651822104
 C         -2.0115056813       -0.2743898390       -0.7138121126
 C         -2.6257763029        1.0585681169       -0.5971516305
 C         -3.2964474307        1.3860722526        0.5211560712
 C         -3.8926909666        2.7343616034        0.8010292745
 C         -2.8848380573        3.6493033196        1.5117949728
 C         -1.5119057171        3.7028437419        0.8403138617
 H         -0.9009165126        4.4038628858        1.4131954645
 H         -1.0358664693        2.7224012211        0.9182608158
 C         -1.5434142657        4.1324375803       -0.6329174530
 H         -0.7530988877        4.8662402212       -0.8023516273
 H         -2.4918293865        4.6233473721       -0.8542124654
 C         -1.3173759725        2.9926813436       -1.6273415212
 H         -0.4169256631        2.4377319101       -1.3537996438
 H         -1.1487967221        3.4305604190       -2.6143863326
 C         -2.4696056557        1.9911273312       -1.7653594933
 H         -3.4035629895        2.5235729732       -1.9571482916
 H         -2.2510140788        1.3559004029       -2.6286319494
 H         -3.3075547959        4.6545877590        1.5593240756
 H         -2.7526158586        3.2889081774        2.5348266467
 H         -4.2120215502        3.1866323967       -0.1359101319
 H         -4.7640196988        2.5999412026        1.4443231368
 O         -3.4551681939        0.5300100974        1.5636521027
 C         -2.9447637507       -0.7567758008        1.5108805554
 O         -3.1561186730       -1.4312821575        2.5396119772
 O         -1.3245691156       -0.5630267792       -1.7255927603
 C         -1.7058847000       -2.5780750014        0.3736754421
 C         -0.2461108921       -2.5630233394       -0.0082083813
 C          0.2598792489       -3.1606879971       -1.1540565630
 C          1.6138642353       -3.0966342487       -1.4338076862
 C          2.4892267777       -2.4495327116       -0.5809257642
 C          1.9926460198       -1.8426772056        0.5662324522
 C          0.6340167934       -1.9023831123        0.8403845688
 H          0.2436568437       -1.4288066555        1.7336414747
 N          2.8619623293       -1.2073258735        1.4685388728
 S          4.1145507675       -0.2288112778        0.9596294790
 O          5.0799353727       -1.0198389855        0.2393191929
 O          4.5850158170        0.4143688110        2.1652972700
 C          3.3919896638        0.9876997354       -0.1239931360
 C          2.8213638818        2.1091222872        0.4457917355
 C          2.2529933924        3.0654359381       -0.3787133514
 C          2.2571546104        2.8805119454       -1.7532687851
 C          2.8242131446        1.7446428886       -2.3091067989
 C          3.3989292099        0.7864153170       -1.4891141014
 H          3.8609526046       -0.1020756797       -1.8861608106
 H          2.8201590581        1.6015327576       -3.3775597515
 H          1.8160556697        3.6273129179       -2.3942666083
 H          1.8066171173        3.9476790801        0.0512616460
 H          2.8511734326        2.2220919451        1.5178411368
 H          2.3978320937       -0.8022169076        2.2675302523
 H          3.5474884793       -2.4109025788       -0.7812205909
 H          1.9954197659       -3.5615151661       -2.3302783935
 H         -0.4087648068       -3.6557015037       -1.8386100954
 H         -1.7692593395       -2.8985956302        1.4269299613
 C         -2.5293865530       -3.5763323346       -0.4258326956
 C         -4.0165467203       -3.4246997778       -0.5384645496
 C         -3.1511913356       -3.2467406294       -1.7479371491
 H         -3.1717589755       -4.0153597423       -2.5068582014
 H         -3.0062410987       -2.2524930600       -2.1382493013
 H         -4.6305881828       -4.3098443212       -0.4666193749
 H         -4.4632064007       -2.5470596057       -0.0934030358
 H         -2.1596288710       -4.5897853928       -0.3015349427
