  62
        -98.93431951
 C          2.2385689181        1.3459811231        0.1672411410
 C          3.1850985610        0.7196616132        1.0163823410
 C          4.0230959268       -0.3255680407        0.4099183553
 C          3.8281790106       -0.6509972812       -0.8805713916
 C          4.5447381118       -1.7424133021       -1.6238832739
 C          3.9576004942       -3.1157340925       -1.2401073618
 C          4.9274333424       -4.0290280948       -0.4893153205
 H          5.6445448365       -4.4442345125       -1.2004632765
 H          4.3456745591       -4.8601895183       -0.0849123723
 C          5.7198298993       -3.3743647773        0.6464186381
 H          6.5568104256       -2.8105017929        0.2321308845
 H          6.1521095981       -4.1833787379        1.2389597961
 C          4.9209301094       -2.4539938671        1.5782675553
 H          5.2735705204       -2.6147392570        2.5990477972
 H          3.8627354491       -2.7172264190        1.5633894258
 C          5.0767382447       -0.9505347264        1.2821144460
 H          6.0646357581       -0.7637436157        0.8522171916
 H          5.0194523768       -0.4012964150        2.2265764300
 H          3.6268430610       -3.6347946013       -2.1411392388
 H          3.0648309610       -2.9496672478       -0.6325102736
 H          5.6081983933       -1.7039556187       -1.3984394313
 H          4.4051167450       -1.5551019707       -2.6887464153
 O          2.8780079351       -0.0629654129       -1.6516237886
 C          2.0527371444        0.9400431525       -1.1553647821
 O          1.2249049601        1.3629708312       -1.9820199441
 O          3.3199564873        1.0193131648        2.2335312523
 C          1.3566163703        2.4247538833        0.7721047661
 C         -0.0886113380        2.1487442240        0.4414687335
 C         -0.8997320713        3.0174233184       -0.2751534920
 C         -2.2102134796        2.6747735796       -0.5602563022
 C         -2.7403200210        1.4704917406       -0.1359623492
 C         -1.9363497140        0.5918977431        0.5787518890
 C         -0.6265652234        0.9399246466        0.8671368671
 H          0.0029753361        0.2510350423        1.4185916222
 N         -2.4668855417       -0.6318804792        1.0262141402
 S         -3.2717981332       -1.6017261984       -0.0842845746
 O         -3.1721182924       -2.9422230585        0.4532865164
 O         -2.7743479231       -1.4108972033       -1.4268902440
 C         -4.9632436190       -1.0571135711        0.0297845704
 C         -5.6436820387       -0.6842681069       -1.1126718157
 C         -6.9627373224       -0.2719397489       -1.0023047658
 C         -7.5741995642       -0.2407902861        0.2416098268
 C         -6.8772518047       -0.6206773725        1.3791087702
 C         -5.5591661005       -1.0353926255        1.2756933364
 H         -4.9835945133       -1.3409769062        2.1333303953
 H         -7.3559827466       -0.5945902848        2.3446926894
 H         -8.5999514937        0.0818843318        0.3250139396
 H         -7.5056002939        0.0234806327       -1.8857639677
 H         -5.1238192496       -0.7176487371       -2.0570661587
 H         -1.8108143570       -1.1837730795        1.5602455951
 H         -3.7578992568        1.1984816946       -0.3642559911
 H         -2.8275426622        3.3554133746       -1.1264906660
 H         -0.4979561753        3.9496642573       -0.6360033197
 H          1.4827934606        2.2967322247        1.8605854359
 C          1.7917581502        3.8473050836        0.4560744708
 C          3.2300955584        4.1706305454        0.1861128478
 C          2.2190473193        4.2778161629       -0.9138541097
 H          1.9344530240        5.2638780849       -1.2511551235
 H          2.2222136436        3.5340905676       -1.6948381008
 H          3.6391465626        5.0789718978        0.6022452352
 H          3.9307194106        3.3485831010        0.1579109445
 H          1.2401637180        4.5751540416        1.0432510609
