  62
        -98.93392612
 C          2.4291183379        0.3809465367        0.1681212521
 C          3.5780973603        0.4050844178        0.9900600006
 C          4.7821752210       -0.2600493364        0.4622627590
 C          4.7333299549       -0.8484666379       -0.7477771818
 C          5.7763722772       -1.6315094366       -1.5181236426
 C          7.2438655026       -1.6032385747       -1.0988962963
 C          7.9367238702       -0.2539485662       -1.2873320145
 H          8.9400399380       -0.3226761858       -0.8613519745
 H          8.0424137580       -0.0650086576       -2.3585850768
 C          7.2186428846        0.9471883532       -0.6772877181
 H          7.8139373697        1.8382233328       -0.8945481455
 H          6.2501234861        1.0813588473       -1.1632776828
 C          7.0104437963        0.8858278976        0.8344870557
 H          6.6351452125        1.8614917648        1.1549015209
 H          7.9676779023        0.7166686719        1.3314559917
 C          6.0104599571       -0.1765921134        1.3223146510
 H          6.4824633900       -1.1518282889        1.4147464441
 H          5.6665945497        0.1161836400        2.3188005543
 H          7.7612335519       -2.3302568980       -1.7308812505
 H          7.3496771562       -1.9472377839       -0.0742667568
 H          5.6943284539       -1.2940130386       -2.5562165153
 H          5.4328050692       -2.6718964558       -1.5058936124
 O          3.5936586025       -0.8548919886       -1.5007984464
 C          2.4242842275       -0.2468915175       -1.0756666384
 O          1.4784693107       -0.3314671983       -1.8812743593
 O          3.5974241861        0.9508638745        2.1267622601
 C          1.1571214283        1.0482258440        0.6567822780
 C          0.0416334023        0.0353429504        0.7408434486
 C          0.2726904919       -1.1590869220        1.4189802884
 C         -0.7165522470       -2.1172071805        1.5222619018
 C         -1.9609359371       -1.9072030336        0.9539769211
 C         -2.2078606979       -0.7148884648        0.2891099670
 C         -1.2124314988        0.2517519478        0.1936094061
 H         -1.4205533935        1.1729186927       -0.3280164301
 N         -3.4645100163       -0.4960093410       -0.3004822140
 S         -4.8330239877       -0.9864191784        0.5578773864
 O         -4.7207684612       -0.5845578070        1.9422605445
 O         -5.0405460455       -2.3942823644        0.3273570255
 C         -6.1027894540       -0.0447799699       -0.2642947606
 C         -6.6303622434       -0.5292768542       -1.4462252699
 C         -7.5992302008        0.2144710599       -2.1008422367
 C         -8.0209715500        1.4231133581       -1.5666559394
 C         -7.4823331337        1.8959585907       -0.3794384968
 C         -6.5122561755        1.1577441149        0.2801198260
 H         -6.0726469661        1.4816627063        1.2098679596
 H         -7.8143855746        2.8344745365        0.0344091383
 H         -8.7763843806        1.9990610183       -2.0774859602
 H         -8.0221540738       -0.1503762688       -3.0229244907
 H         -6.2783057863       -1.4771389201       -1.8185829433
 H         -3.5651871506        0.4445868813       -0.6562106798
 H         -2.7419724653       -2.6471992518        1.0242195306
 H         -0.5192049168       -3.0396947126        2.0481881310
 H          1.2447062866       -1.3275373057        1.8629447426
 H          1.3812780848        1.3914675189        1.6779173409
 C          0.8324335317        2.2526898317       -0.2014534946
 C          0.0646327236        3.4056973436        0.3713627553
 C          1.5278603105        3.5491856596        0.0819441805
 H          1.8327981761        4.1637393436       -0.7517172862
 H          2.2165018895        3.5698606780        0.9139120633
 H         -0.6341346694        3.9280383467       -0.2647945104
 H         -0.2432471000        3.3369437042        1.4038337482
 H          0.6688060998        1.9899793760       -1.2408013038
