  62
        -98.94210143
 C         -0.7142069829       -1.8555824832        0.1065802804
 C         -1.4663983746       -1.1221245225        1.0508277593
 C         -2.7121945139       -0.4975420288        0.5690594009
 C         -3.0629415582       -0.6656227810       -0.7193020534
 C         -4.2728091294       -0.0975551250       -1.4095332284
 C         -4.0996509738        1.3864657940       -1.7909053142
 C         -3.2922742836        2.2260238728       -0.8016175851
 H         -2.3270214262        1.7430793800       -0.6351406167
 H         -3.0718653732        3.1846370699       -1.2803407041
 C         -3.9814685277        2.5177636262        0.5305805924
 H         -4.8234047278        3.1901761482        0.3464689636
 H         -3.2658215802        3.0486988226        1.1640400171
 C         -4.5115901072        1.3062376692        1.2952117663
 H         -5.3489590380        0.8658121791        0.7607994520
 H         -4.9056215878        1.6711084019        2.2486473185
 C         -3.4725062533        0.2426740860        1.6421942269
 H         -2.7053041065        0.6938787719        2.2810389369
 H         -3.9584830795       -0.5221921112        2.2609712208
 H         -5.0865241005        1.8309716128       -1.9304469824
 H         -3.5712114486        1.4265829293       -2.7462634776
 H         -5.1477128372       -0.2446482389       -0.7814814542
 H         -4.4182035209       -0.6764012062       -2.3240873241
 O         -2.3056266053       -1.3773760660       -1.5993629579
 C         -1.1133417344       -1.9727037548       -1.2243889611
 O         -0.5237129296       -2.5723736546       -2.1440665570
 O         -1.1110112000       -0.9863271546        2.2536657404
 C          0.5909764488       -2.4871128963        0.5462483551
 C          1.7738031601       -1.8797470876       -0.1710297177
 C          2.9675379602       -2.5696300027       -0.3527809742
 C          4.0380486774       -1.9615315284       -0.9846217680
 C          3.9507543314       -0.6578523372       -1.4386251704
 C          2.7614322306        0.0407438021       -1.2626342678
 C          1.6936369267       -0.5719961546       -0.6263034038
 H          0.7686085039       -0.0291709412       -0.5180283311
 N          2.6221984708        1.3524193103       -1.7270855806
 S          1.4677096757        2.3954962178       -1.1375271605
 O          0.1488524828        1.9804856133       -1.5440131879
 O          1.8982966779        3.6926344800       -1.6157934230
 C          1.6268741093        2.3347846299        0.6376893562
 C          0.5649847593        1.9224365037        1.4149324923
 C          0.7229424217        1.8519909268        2.7894960331
 C          1.9355808120        2.2027298728        3.3614629837
 C          2.9905090951        2.6308276144        2.5692739585
 C          2.8388564486        2.6948608550        1.1940817942
 H          3.6352295949        3.0271280741        0.5484816202
 H          3.9302991119        2.9076716804        3.0191590583
 H          2.0567468873        2.1419434706        4.4314822722
 H         -0.0959380029        1.4997470552        3.3963590651
 H         -0.3641960549        1.6493695417        0.9388399401
 H          3.4614751124        1.8094812793       -2.0466595203
 H          4.7851619430       -0.1878152689       -1.9355054978
 H          4.9567947058       -2.5105329437       -1.1242990111
 H          3.0551479756       -3.5860739852       -0.0052052057
 H          0.6864594936       -2.2392491516        1.6152407996
 C          0.5310025244       -3.9955386504        0.4026319889
 C          1.1959574198       -4.8869965863        1.4075288720
 C         -0.2979017275       -4.7799617456        1.3742400543
 H         -0.8719996571       -5.6164966116        1.0051729368
 H         -0.7892322475       -4.2274894671        2.1620280636
 H          1.6494969391       -5.8037073849        1.0616142897
 H          1.7142622570       -4.4178217981        2.2301721640
 H          0.5167136678       -4.3117955943       -0.6343330417
