  62
        -98.93461075
 C         -2.3530383945       -1.2343809039        0.0929196043
 C         -3.3195275329       -0.7575648746        1.0148249152
 C         -4.4143848625        0.0703048479        0.4806490808
 C         -4.4448502291        0.3461520971       -0.8361265403
 C         -5.4437253257        1.1143442831       -1.6763742215
 C         -6.5268802497        1.9634894399       -1.0169511602
 C         -6.0101742592        3.2126450831       -0.3031471433
 H         -5.6617463745        3.9225571529       -1.0576327604
 H         -6.8454694751        3.6747569442        0.2272093022
 C         -4.8625267287        2.9851615990        0.6776061711
 H         -3.9939197290        2.5953617741        0.1427081604
 H         -4.5768487731        3.9571523418        1.0887888788
 C         -5.1783446885        2.0604285902        1.8511548966
 H         -4.3317289127        2.1032981533        2.5416520616
 H         -6.0605337680        2.4260183025        2.3802228552
 C         -5.4038767382        0.5835685169        1.4871245973
 H         -5.2552475553       -0.0131307850        2.3917904800
 H         -6.4222283671        0.4119816186        1.1467727004
 H         -7.1223412826        1.3547432603       -0.3430275373
 H         -7.1942980693        2.2938782516       -1.8175078824
 H         -4.8499631722        1.7459015749       -2.3451324653
 H         -5.9287758532        0.3660574408       -2.3130069762
 O         -3.4868419631       -0.1252992162       -1.6860915337
 C         -2.4262993330       -0.9129168981       -1.2611829257
 O         -1.6510033543       -1.2348646397       -2.1824132099
 H          0.1006353964       -0.4354039661       -0.9677619682
 C          0.5736215601       -0.5292189753       -0.0006430708
 C         -0.0000664268       -1.3500799776        0.9607889595
 C          0.6308082522       -1.4690586662        2.1934515317
 C          1.8077901235       -0.7879859266        2.4521231166
 C          2.3812837432        0.0196294881        1.4862759802
 C          1.7565429613        0.1475249821        0.2527962446
 N          2.3516242907        0.9545833324       -0.7445878228
 S          3.7872011416        0.3243555249       -1.3669944547
 O          3.9549255847        0.9429663688       -2.6636379254
 O          3.7780618142       -1.1208829303       -1.3391129211
 C          5.0308987305        0.9464919714       -0.2561362425
 C          5.7963523540        0.0668391328        0.4837067604
 C          6.7574881449        0.5760872593        1.3433039853
 C          6.9345610021        1.9474066766        1.4464347862
 C          6.1583403841        2.8172961228        0.6945703876
 C          5.1964735395        2.3150805032       -0.1672209762
 H          4.5738897386        2.9528241309       -0.7724728601
 H          6.2993247780        3.8829107883        0.7775487608
 H          7.6821637687        2.3409540249        2.1169046050
 H          7.3616053668       -0.0980546282        1.9288963246
 H          5.6179145931       -0.9907310051        0.3739127556
 H          1.7218699396        1.1362340801       -1.5149976581
 H          3.2982471785        0.5518862640        1.6797530329
 H          2.2850142265       -0.8884967813        3.4147173445
 H          0.1873509458       -2.0959916265        2.9531648854
 C         -1.2569773626       -2.1222928898        0.6547218710
 H         -1.6619830087       -2.4854492528        1.6125754659
 C         -0.9879173190       -3.3455152970       -0.2137906416
 C          0.2686628222       -3.5595963015       -0.9987775149
 C          0.0053965001       -4.3799139838        0.2264158940
 H         -0.2454201191       -5.4232305795        0.1097941161
 H          0.5942137155       -4.1600177052        1.1041153729
 H          0.1753164926       -4.0249722495       -1.9686727439
 H          1.0466370447       -2.8119518653       -0.9597358945
 H         -1.8993486714       -3.7158631994       -0.6735300225
 O         -3.2787735772       -1.0311050136        2.2438637888
