  62
        -98.94910512
 C         -1.2794007740       -1.5445711313        0.5399577083
 C         -2.2184535932       -1.2028632860       -0.4633632154
 C         -3.1991676462       -0.1759695859       -0.0927454498
 C         -3.1704570169        0.3674408891        1.1373567168
 C         -4.0899369164        1.4403339982        1.6527846117
 C         -3.6422000071        2.8586007592        1.2722409221
 C         -3.8617179552        3.2388896174       -0.1927307886
 H         -4.8910926383        3.0166673176       -0.4774788483
 H         -3.7281303793        4.3202848978       -0.2639042018
 C         -2.8942520817        2.5621781964       -1.1743070202
 H         -2.5220921302        3.3044048892       -1.8852734071
 H         -2.0204278199        2.1922994141       -0.6310610147
 C         -3.5083467512        1.4244588775       -1.9915313983
 H         -2.7186374571        0.9825100039       -2.6048811946
 H         -4.2708953059        1.8287501109       -2.6617730747
 C         -4.1405352579        0.3045942002       -1.1549530524
 H         -5.0756144012        0.6466283895       -0.7121801609
 H         -4.3518878201       -0.5379720589       -1.8182175997
 H         -4.2031341239        3.5583741947        1.8965584822
 H         -2.5818501572        2.9686601392        1.5149292937
 H         -5.1037893905        1.2657761733        1.2916779166
 H         -4.0878541410        1.3583367419        2.7419039796
 O         -2.2741622454       -0.0136944055        2.0853285155
 C         -1.2780361810       -0.9313142723        1.7917437897
 O         -0.4625932032       -1.1193259037        2.7194501795
 H          0.3781820541        0.0936320131       -0.1633448909
 C          0.8880887872       -0.5125133114       -0.8947200388
 C          0.7172108044       -1.8890203106       -0.8802087147
 C          1.3632925674       -2.6428445859       -1.8521930521
 C          2.1415419587       -2.0207270301       -2.8138379152
 C          2.3079012998       -0.6470564402       -2.8218793315
 C          1.6691936750        0.1147055517       -1.8502326863
 N          1.7884476569        1.5116137060       -1.8112310086
 S          1.8022279618        2.3046922442       -0.3393135557
 O          0.4881999823        2.3123774501        0.2525488250
 O          2.3614650917        3.6041918254       -0.6459679378
 C          2.9581554454        1.3777086005        0.6543075539
 C          2.5290513398        0.5686032711        1.6857506113
 C          3.4671364053       -0.1743262332        2.3868534206
 C          4.8085425764       -0.0967860859        2.0486205335
 C          5.2256819343        0.7281345558        1.0144001092
 C          4.2936364093        1.4695660628        0.3086345133
 H          4.5779138979        2.1318728507       -0.4928886228
 H          6.2703630433        0.7919362818        0.7562155184
 H          5.5314295659       -0.6803987607        2.5964039595
 H          3.1319062648       -0.8119450581        3.1895208091
 H          1.4805085359        0.5165498930        1.9358809050
 H          2.4469378726        1.9090303554       -2.4641661105
 H          2.9128416326       -0.1672881734       -3.5756405426
 H          2.6304144751       -2.6166150925       -3.5694674743
 H          1.2492259339       -3.7145447735       -1.8626437443
 C         -0.1375580678       -2.4886193644        0.2135815800
 H          0.4786109569       -2.5481167901        1.1238660536
 C         -0.6506836723       -3.8742460569       -0.1188295034
 C          0.1633968390       -5.0851538979        0.2227884267
 C         -1.0781933477       -4.7732228232        1.0011435170
 H         -1.9496754596       -5.3945607307        0.8600989330
 H         -0.9715026515       -4.3943682771        2.0075430823
 H          0.1430751257       -5.9269043320       -0.4529500687
 H          1.1148485138       -4.9294430378        0.7086074244
 H         -1.2411358886       -3.8906208906       -1.0272369074
 O         -2.2316699472       -1.7159878504       -1.6124995263
