  62
        -98.93510981
 C         -1.8934938574       -1.3034152307       -0.1675593503
 C         -2.9967791810       -1.2526272457        0.7240043457
 C         -4.2045017233       -0.5645117140        0.2465498779
 C         -4.2069621965       -0.0355873990       -0.9900653261
 C         -5.3238466252        0.7656973409       -1.5959878714
 C         -5.3140951362        2.1973271398       -1.0227522473
 C         -6.5398990944        2.5468268131       -0.1784964801
 H         -6.3224605001        3.4824431719        0.3412620945
 H         -7.3879808604        2.7283105085       -0.8421534102
 C         -6.9662413092        1.4934895589        0.8486051888
 H         -7.6632695261        1.9816191197        1.5330999283
 H         -7.5248564496        0.6998595469        0.3501297931
 C         -5.8356225880        0.8578495551        1.6681198671
 H         -6.1900241932        0.7301028536        2.6929815459
 H         -4.9716401037        1.5215422874        1.7123287836
 C         -5.3874565409       -0.5302592351        1.1739680797
 H         -5.0813357018       -1.1263268825        2.0387592269
 H         -6.2334461062       -1.0410134446        0.7055651171
 H         -5.2460115085        2.9166715457       -1.8403752756
 H         -4.4102417738        2.3198426205       -0.4218133191
 H         -6.2759962833        0.2793842918       -1.3958610270
 H         -5.1619528395        0.7869541091       -2.6739367087
 O         -3.1356483730       -0.1057499303       -1.8188514796
 C         -1.9530601966       -0.7300372680       -1.4378529060
 O         -1.0692453783       -0.6897520220       -2.3144506088
 O         -2.9722078914       -1.7728369341        1.8717206617
 C         -0.6545421380       -2.0290738115        0.3286635288
 C          0.3595545872       -1.0748215578        0.9057788038
 C          0.9267304008       -1.3038469756        2.1539290689
 C          1.8678083552       -0.4306766306        2.6723674347
 C          2.2653446188        0.6838959791        1.9564240333
 C          1.7071445551        0.9193551201        0.7060217330
 C          0.7637087149        0.0431934185        0.1887292307
 H          0.3381923786        0.2292943709       -0.7863038500
 N          2.1128534735        2.0409719134       -0.0383830628
 S          3.7589935133        2.3226529327       -0.1643040883
 O          4.2196792560        3.0045144313        1.0199993103
 O          3.9331086998        3.0353175335       -1.4099579433
 C          4.5012540394        0.7029212976       -0.2538498255
 C          5.3441730829        0.2735711123        0.7509289419
 C          5.8728930113       -1.0054161651        0.6810882549
 C          5.5484184097       -1.8293541905       -0.3852436549
 C          4.7047801221       -1.3814162931       -1.3903322865
 C          4.1732917819       -0.1035304733       -1.3258548454
 H          3.5148806594        0.2745672064       -2.0925066865
 H          4.4509690101       -2.0239197311       -2.2180603890
 H          5.9533178159       -2.8275677370       -0.4358352160
 H          6.5308981269       -1.3557181909        1.4598079324
 H          5.5683180866        0.9466191230        1.5622592560
 H          1.6606031130        2.1105626824       -0.9383837976
 H          2.9896070098        1.3799130282        2.3473638694
 H          2.2955752052       -0.6182940115        3.6450722835
 H          0.6145149890       -2.1659098571        2.7246675158
 H         -1.0190166333       -2.6590861790        1.1551742005
 C         -0.0558374564       -2.9618370824       -0.7166613778
 C          1.2337685487       -2.6987886800       -1.4281618015
 C          1.1610725598       -3.7770823805       -0.3918628477
 H          1.1916154244       -4.8081274766       -0.7093464527
 H          1.6449247234       -3.5881765289        0.5543785803
 H          1.2916223144       -2.9750611647       -2.4698708746
 H          1.7760145917       -1.7985567868       -1.1865352221
 H         -0.8294604874       -3.4539725345       -1.2982625284
