  62
        -98.94052448
 C         -1.1462408089       -1.2641978954       -0.0144016182
 C         -1.6175274274       -0.2284018736        0.8252499422
 C         -2.7361290112        0.5675773864        0.3057701093
 C         -3.2007871733        0.3282770703       -0.9335315106
 C         -4.2866627287        1.0875778834       -1.6496484699
 C         -5.7007016144        0.9946993516       -1.0442612798
 C         -6.0525833860        2.1351876125       -0.0811125514
 H         -7.0886190572        2.4335490938       -0.2539375470
 H         -5.4333276513        3.0003901621       -0.3217520239
 C         -5.9229506894        1.8126680573        1.4105262578
 H         -6.7862623257        1.2211137147        1.7235888397
 H         -5.9536971485        2.7560692540        1.9598844299
 C         -4.6676642547        1.0420781742        1.8195459541
 H         -4.7684112247       -0.0055599356        1.5262593620
 H         -4.6011766574        1.0535395398        2.9092257537
 C         -3.3549733235        1.5839567793        1.2206116183
 H         -2.6298083266        1.7704903827        2.0156116468
 H         -3.5267433125        2.5204836621        0.6913782110
 H         -5.8232367437        0.0291407646       -0.5543592162
 H         -6.4029524929        1.0255280903       -1.8788173056
 H         -4.3047788982        0.6799397689       -2.6626583987
 H         -3.9882991501        2.1365630098       -1.7198973160
 O         -2.6826370157       -0.6441194910       -1.7332445407
 C         -1.6510226481       -1.4634894579       -1.2988153139
 O         -1.2802626392       -2.3085678087       -2.1358111244
 O         -1.1178171770        0.0260650563        1.9551268952
 C          0.0016364120       -2.1323934586        0.4630529816
 C          1.2264786834       -1.9191925148       -0.3933714363
 C          2.1162279309       -2.9352561208       -0.7203116601
 C          3.2402474421       -2.6621595083       -1.4807522072
 C          3.5182368596       -1.3755951993       -1.9060054084
 C          2.6370668455       -0.3514498316       -1.5790720118
 C          1.5020382749       -0.6335182939       -0.8370507390
 H          0.8110569679        0.1658820329       -0.6190512510
 N          2.8742633335        0.9731793213       -1.9768422527
 S          2.4745247993        2.2189243326       -0.9333555026
 O          1.0499642982        2.4411882441       -0.9329542766
 O          3.2831448745        3.3317039220       -1.3856866753
 C          3.0478046185        1.6694897764        0.6645979335
 C          4.4160571227        1.6159778461        0.8543726385
 C          4.9118557435        1.1425159884        2.0572226978
 C          4.0342863174        0.7244704826        3.0466439766
 C          2.6652966207        0.7899188891        2.8435427769
 C          2.1621322654        1.2673258596        1.6427549364
 H          1.0987677235        1.3203306880        1.4678152227
 H          1.9740079248        0.4674072676        3.6059808809
 H          4.4180033411        0.3481788561        3.9817859938
 H          5.9767177108        1.0968873620        2.2187186639
 H          5.0642267375        1.9601885566        0.0649015427
 H          3.7622564106        1.1308944081       -2.4299380580
 H          4.3992739110       -1.1645349040       -2.4921853328
 H          3.9168506101       -3.4627698872       -1.7378579354
 H          1.9251640452       -3.9420058752       -0.3868927904
 H          0.2393846159       -1.7673073620        1.4745437941
 C         -0.4233476740       -3.5831846758        0.5575018265
 C          0.1588213385       -4.4773454639        1.6101963523
 C         -1.2616684358       -4.0146957257        1.7225040349
 H         -2.0551173234       -4.7265795321        1.5513441348
 H         -1.5005507105       -3.2664176324        2.4643167169
 H          0.3396024233       -5.5127905095        1.3638696278
 H          0.8836430640       -4.0493372395        2.2859158414
 H         -0.6552096234       -4.0109979239       -0.4111941438
