  62
        -98.93965963
 C         -0.8543282893       -1.8373656904        0.4250429393
 C         -1.3057142300       -0.6791746108        1.0962688795
 C         -2.4481207705        0.0365593985        0.5022975396
 C         -2.9822658502       -0.4272982017       -0.6411604804
 C         -4.1383619006        0.1297439377       -1.4318929604
 C         -4.1041150215        1.6435340678       -1.6960216101
 C         -5.1851357520        2.4147390770       -0.9368280100
 H         -5.3759873826        3.3537875869       -1.4611034799
 H         -6.1085408116        1.8322839364       -0.9637213601
 C         -4.8440031122        2.7560283370        0.5124936000
 H         -5.7414306125        3.1775054864        0.9715466101
 H         -4.0754174427        3.5320354275        0.5267669401
 C         -4.3602326115        1.5832684072        1.3682463098
 H         -4.9374444809        0.6857509869        1.1506267997
 H         -4.5464852116        1.8369514069        2.4139896399
 C         -2.8596449913        1.2921167582        1.2227214898
 H         -2.3602879118        2.1389179886        0.7390986899
 H         -2.4079909612        1.2013003583        2.2160733398
 H         -4.2637407916        1.8006588178       -2.7643035701
 H         -3.1135981518        2.0346349384       -1.4623590401
 H         -5.0708646704       -0.1394826030       -0.9300583204
 H         -4.1227980802       -0.4132428322       -2.3795114404
 O         -2.5196457095       -1.5536022413       -1.2535804306
 C         -1.4299489390       -2.2585191607       -0.7720194007
 O         -1.0931098184       -3.2247921903       -1.4833553908
 O         -0.7694812903       -0.2495589406        2.1549012696
 C          0.3898078412       -2.5453840797        0.9390084692
 C          1.4880373610       -2.2832253989       -0.0629799707
 C          2.1608334016       -3.2715916284       -0.7664339009
 C          3.0753118714       -2.9240831777       -1.7471988109
 C          3.3193126205       -1.5991987475       -2.0564986807
 C          2.6616080499       -0.6006140980       -1.3434073505
 C          1.7839067301       -0.9518126987       -0.3336095506
 H          1.2725443197       -0.1795466991        0.2189096395
 N          2.8901279790        0.7519164222       -1.6234236604
 S          1.7588606583        1.9428607814       -1.3039602002
 O          0.4001937486        1.4617419306       -1.3963244602
 O          2.1157281276        3.0113396018       -2.2155275401
 C          2.1654745480        2.4576943415        0.3510051899
 C          1.2710419381        2.2962843508        1.3883095999
 C          1.6388716678        2.7091117308        2.6601558299
 C          2.8855733575        3.2758614816        2.8707437800
 C          3.7725396974        3.4362162223        1.8160183600
 C          3.4113757976        3.0243920122        0.5444458899
 H          4.0652573075        3.1385063328       -0.3039991001
 H          4.7416040071        3.8782924729        1.9825171400
 H          3.1663355673        3.5938426317        3.8624606200
 H          0.9463299179        2.5734476603        3.4753816799
 H          0.3118088884        1.8375733902        1.2037220698
 H          3.4218705289        0.9378102827       -2.4600997503
 H          4.0063413103       -1.3346235169       -2.8457792107
 H          3.5884812919       -3.6994763473       -2.2957897310
 H          1.9554435923       -4.3099714585       -0.5655553210
 H          0.6498256409       -2.0383208497        1.8792278393
 C          0.1376640121       -4.0090191199        1.2205090590
 C          1.0394128226       -4.7509067295        2.1603077889
 C         -0.3608879376       -4.4150321204        2.5739629290
 H         -1.0871953071       -5.2113448309        2.6367286289
 H         -0.5058807981       -3.6338405306        3.3056926491
 H          1.2759011132       -5.7812132693        1.9422342788
 H          1.8481993022       -4.1987600990        2.6142378790
 H         -0.2588054776       -4.5396492901        0.3629132990
