  62
        -98.94622487
 C         -1.7891359268       -1.3114083438       -0.0615972386
 C         -2.7837726395       -0.6826509162        0.7224678918
 C         -3.3203925025        0.5774938541        0.1894956240
 C         -2.8488820058        1.0515055853       -0.9784926521
 C         -3.2536254063        2.3576367528       -1.5984156883
 C         -2.3360251299        3.5013242704       -1.1414269243
 C         -2.1155585020        3.5481929886        0.3703482118
 H         -1.5800266689        2.6477121868        0.6822299566
 H         -1.4613960787        4.3977065460        0.5801168133
 C         -3.4055850813        3.6785107371        1.1926298913
 H         -3.2542478398        4.4358205445        1.9648359855
 H         -4.2177458416        4.0261811627        0.5531575417
 C         -3.8375766827        2.3952291578        1.9046700273
 H         -4.6297147845        2.6504922728        2.6136071110
 H         -2.9998257018        1.9970961526        2.4836473543
 C         -4.3742459063        1.2783151199        1.0000430804
 H         -4.8149225984        0.5130658621        1.6459040935
 H         -5.1592894917        1.6749903338        0.3532811192
 H         -2.7682928837        4.4463116504       -1.4749621834
 H         -1.3625610176        3.3873533029       -1.6236370450
 H         -4.2844644916        2.5776342107       -1.3277592533
 H         -3.1869584171        2.2600289665       -2.6831860043
 O         -1.9010296635        0.4126708404       -1.7094876437
 C         -1.3353443128       -0.7766044541       -1.2683478230
 O         -0.4635583707       -1.2421433965       -2.0216393910
 O         -3.1937950277       -1.1438918122        1.8227694260
 C         -1.1343935787       -2.5826734206        0.4492487086
 C          0.3466362274       -2.3401188528        0.6103598134
 C          1.3278473774       -3.1908654137        0.1206818571
 C          2.6682004331       -2.8716569479        0.2625673536
 C          3.0589523401       -1.7043408837        0.8913858315
 C          2.0843963136       -0.8529310602        1.3967557127
 C          0.7453559406       -1.1784823073        1.2613292462
 H         -0.0105214110       -0.5087325793        1.6538353237
 N          2.4683482415        0.3512415789        2.0200752175
 S          3.4744657223        1.3505056361        1.1240430120
 O          4.8360194549        0.8986037098        1.2652396241
 O          3.2021199515        2.6887931082        1.6001975271
 C          2.9462582288        1.1619110875       -0.5685054780
 C          3.7786566867        0.5468397180       -1.4802838941
 C          3.3345450893        0.3739254245       -2.7812203096
 C          2.0721387944        0.8143031636       -3.1440495881
 C          1.2486797639        1.4333224481       -2.2170662077
 C          1.6857072127        1.6067871804       -0.9149936879
 H          1.0676379450        2.0845837461       -0.1698543189
 H          0.2604082585        1.7565445393       -2.5024288007
 H          1.7186710165        0.6692948371       -4.1523409157
 H          3.9703515101       -0.1094122895       -3.5054161208
 H          4.7523420279        0.2185508531       -1.1550600313
 H          1.6869641474        0.8802925099        2.3799574254
 H          4.0969012605       -1.4332084461        0.9970632161
 H          3.4194883111       -3.5390811848       -0.1307298946
 H          1.0444612564       -4.0992452081       -0.3845199827
 H         -1.5680775465       -2.7601267008        1.4446406195
 C         -1.4666739249       -3.7580755844       -0.4443362310
 C         -1.4964922051       -5.1476171587        0.1166025508
 C         -2.7757136681       -4.4623478921       -0.2564413848
 H         -3.3093498525       -4.8019684280       -1.1313850895
 H         -3.4193537009       -4.1098477036        0.5364431511
 H         -1.1535662680       -5.9618329146       -0.5037092601
 H         -1.2743606303       -5.2688694642        1.1660606800
 H         -1.1132448000       -3.6210844285       -1.4598825305
