  62
        -98.93797798
 C          2.0274051310        1.1664138466        0.7694958985
 C          1.9429777511       -0.2162905773        1.0790060390
 C          3.1150032743       -1.0328901595        0.7485970911
 C          4.1982407754       -0.4491553217        0.2054079650
 C          5.4920551757       -1.1328569507       -0.1454948437
 C          5.4894083378       -1.8149654346       -1.5202256633
 C          4.6530430155       -3.0919799036       -1.6088856820
 H          4.9114906298       -3.5805046290       -2.5505214296
 H          4.9385613952       -3.7684782822       -0.8027140840
 C          3.1366745391       -2.8560364409       -1.5746239818
 H          2.9265720736       -1.8056376672       -1.7902834983
 H          2.6581672057       -3.4439459300       -2.3613203341
 C          2.4639732899       -3.2334167237       -0.2547818850
 H          2.5467709178       -4.3109581967       -0.0963757978
 H          1.4026961973       -2.9847756523       -0.3369389819
 C          3.0320433782       -2.5122290819        0.9748305774
 H          2.3578465519       -2.6819821158        1.8179235683
 H          4.0131774992       -2.9150357771        1.2255107039
 H          5.1394511161       -1.0975263740       -2.2661993824
 H          6.5249350452       -2.0658324666       -1.7616915631
 H          6.2617972378       -0.3579679732       -0.1478310278
 H          5.7387058653       -1.8649336440        0.6241748135
 O          4.2449461541        0.8785745970       -0.0730840573
 C          3.1547936576        1.7157301764        0.1575721817
 O          3.3439694790        2.8861290485       -0.2182512880
 O          0.9324185850       -0.7384537226        1.6184933036
 C          0.7965702598        1.9933815508        1.0964326212
 C         -0.2260108131        1.8593683939       -0.0039001718
 C          0.1433436256        1.9702596126       -1.3403833131
 C         -0.7959390717        1.8210985630       -2.3448563141
 C         -2.1209195378        1.5636916665       -2.0382740985
 C         -2.5001185612        1.4485907124       -0.7076249169
 C         -1.5540480283        1.5971683724        0.3000504818
 H         -1.8522145801        1.4884127643        1.3340912966
 N         -3.8521998990        1.1890438209       -0.4010530752
 S         -4.4868059447       -0.3022017127       -0.8287080569
 O         -4.1412041511       -0.5788356246       -2.1985974570
 O         -5.8956579187       -0.2323809270       -0.5181743247
 C         -3.6930836595       -1.4646729092        0.2670774808
 C         -2.3499787160       -1.7344972047        0.0915522984
 C         -1.7144682698       -2.5755183481        0.9907207741
 C         -2.4310895780       -3.1367039681        2.0365161748
 C         -3.7812932240       -2.8630608236        2.1939741681
 C         -4.4189888723       -2.0104644063        1.3074520532
 H         -5.4637595795       -1.7595872069        1.3961036208
 H         -4.3345801357       -3.3034006727        3.0079677227
 H         -1.9284998039       -3.7880008896        2.7340440275
 H         -0.6574528963       -2.7607186430        0.8899518286
 H         -1.8181791103       -1.2846854209       -0.7320757180
 H         -4.0901447363        1.3809305897        0.5624215195
 H         -2.8605683770        1.4295200511       -2.8101569336
 H         -0.4945297609        1.9093350367       -3.3779212731
 H          1.1763907111        2.1754107399       -1.5822921417
 H          0.3682666469        1.5211886091        1.9955206973
 C          1.0968305396        3.4424110165        1.4467330459
 C          0.8041672214        4.5887409540        0.5311023241
 C         -0.0236447719        4.3886608283        1.7629214800
 H          0.0971749831        5.0755101893        2.5867242467
 H         -1.0334314409        4.0307609913        1.6290732712
 H          1.5161993490        5.3989698828        0.5025686112
 H          0.3544472303        4.3755731328       -0.4260604980
 H          1.9930843873        3.5325941765        2.0513896686
