  62
        -98.93899604
 C         -1.9832201897       -1.4505746709       -0.3746200666
 C         -2.9370704257       -1.3032722606        0.6668708967
 C         -4.1152869358       -0.4850716882        0.3672931425
 C         -4.2457810826        0.0656494124       -0.8526962362
 C         -5.3966604170        0.9129561115       -1.3240735981
 C         -5.2804128469        2.3936643729       -0.9373517952
 C         -5.5112550115        2.6994317568        0.5431707384
 H         -5.6177315860        3.7823414748        0.6330917086
 H         -6.4529500760        2.2518299955        0.8624323204
 C         -4.3782167675        2.2365453900        1.4700022547
 H         -3.4797805114        2.0413175933        0.8791735505
 H         -4.1303590799        3.0376743023        2.1700524890
 C         -4.7046457135        0.9944919834        2.2995767566
 H         -3.8203161367        0.7337010810        2.8865898398
 H         -5.5167799552        1.2210470860        2.9938968227
 C         -5.0997088266       -0.2334862584        1.4690650534
 H         -6.1024369623       -0.1064734389        1.0616262409
 H         -5.0942364642       -1.1073596978        2.1249719907
 H         -4.2933388422        2.7558036697       -1.2351481256
 H         -6.0245156008        2.9417692605       -1.5200367911
 H         -6.3321464750        0.5070283419       -0.9379030034
 H         -5.4092428628        0.8416234939       -2.4138616920
 O         -3.3229072482       -0.1122625325       -1.8325348563
 C         -2.1567282179       -0.8483307508       -1.6213850092
 O         -1.4132630558       -0.8832171176       -2.6174781689
 O         -2.8078242727       -1.8458395221        1.7967908328
 C         -0.7513708146       -2.2648990545       -0.0194214606
 C          0.2241983637       -1.4106056333        0.7512975633
 C          0.7548051668       -1.8605707549        1.9555677819
 C          1.6284595310       -1.0732226164        2.6835512148
 C          2.0076205134        0.1690916312        2.2088816287
 C          1.4875162905        0.6266624067        1.0038514497
 C          0.5921821894       -0.1544164853        0.2874097652
 H          0.1871355985        0.2222822366       -0.6405302787
 N          1.8784889394        1.8777127188        0.4722074343
 S          2.9047231610        1.7918240251       -0.8516125354
 O          3.2758718005        3.1583608878       -1.1442049389
 O          2.2719170412        1.0458027765       -1.9057770373
 C          4.3233328179        0.9022513775       -0.2317134150
 C          5.3969854785        1.6143503150        0.2665451610
 C          6.4631357840        0.9219430592        0.8180226805
 C          6.4315916585       -0.4633968149        0.8725037970
 C          5.3450063549       -1.1636341300        0.3710637333
 C          4.2777738558       -0.4771497682       -0.1864605555
 H          3.4200152391       -0.9884851255       -0.5927551818
 H          5.3203735214       -2.2406069741        0.4119261437
 H          7.2593667796       -1.0017179199        1.3063001284
 H          7.3111485128        1.4635738693        1.2050553185
 H          5.3788842689        2.6902376150        0.1993795392
 H          2.2895245129        2.4938772549        1.1611948581
 H          2.6944486042        0.7870129528        2.7678355944
 H          2.0219683833       -1.4314389628        3.6221091616
 H          0.4577571649       -2.8291159522        2.3293804339
 H         -1.1162468241       -3.0382123418        0.6769258377
 C         -0.1061682008       -2.9937496555       -1.1864101301
 C          1.0605485092       -2.4646290279       -1.9585033120
 C          1.2489219641       -3.6191936639       -1.0234330021
 H          1.4199193797       -4.5985533531       -1.4437520415
 H          1.7716853290       -3.4355651304       -0.0964902606
 H          1.0712940738       -2.6466684004       -3.0226132897
 H          1.4550588664       -1.4937426696       -1.7015984839
 H         -0.8390802157       -3.5527787595       -1.7597702524
