  62
        -98.93256709
 C         -1.6321936075       -1.5111939056        0.1244728207
 C         -1.5230155332       -0.1694510750       -0.3181066407
 C         -2.7891665236        0.5003519258       -0.6716926183
 C         -3.9469089992       -0.1752415104       -0.5702286460
 C         -5.3160065586        0.3855177632       -0.8312502874
 C         -5.7736097623        1.2404948269        0.3675539031
 C         -5.9331376092        2.7285749337        0.0550813552
 H         -6.8569837280        2.8761125781       -0.5081856646
 H         -6.0403091944        3.2530162191        1.0070027567
 C         -4.7921172724        3.3694738391       -0.7410266487
 H         -4.9117754202        4.4514695001       -0.6537282351
 H         -4.9026880405        3.1292142349       -1.7994953698
 C         -3.3715144178        2.9947088969       -0.2984603202
 H         -3.3631509481        2.6763190158        0.7444979234
 H         -2.7480717980        3.8894802073       -0.3587547114
 C         -2.6921284748        1.9177490140       -1.1648147685
 H         -3.0737168269        1.9781139629       -2.1880856018
 H         -1.6190661316        2.1301266320       -1.1998613536
 H         -6.7281814388        0.8652866500        0.7395655237
 H         -5.0499965482        1.1129679279        1.1756301026
 H         -5.3030482208        0.9792796370       -1.7424458114
 H         -5.9903580375       -0.4592368108       -0.9734798105
 O         -4.0120880826       -1.4596492324       -0.1328631608
 C         -2.8708115186       -2.1478689245        0.2426641644
 O         -3.0873940831       -3.3033505008        0.6588054581
 H          2.0069148231       -1.0392023105        0.2154950323
 C          1.6194491803       -0.9475119462        1.2167361423
 C          0.4011559105       -1.5224267371        1.5459883709
 C         -0.0879649094       -1.3630401738        2.8397554681
 C          0.6296984447       -0.6594781648        3.7872043924
 C          1.8476703299       -0.0929504204        3.4561561729
 C          2.3380375750       -0.2297314261        2.1639867585
 N          3.5816199853        0.3318900137        1.8041938695
 S          3.5712163091        1.5767862925        0.6672378875
 O          4.8175894256        2.2789563563        0.9058145071
 O          2.3741997803        2.3770639250        0.7728685211
 C          3.6789993559        0.7688245003       -0.9126940150
 C          4.8937660370        0.2135840028       -1.2665831485
 C          5.0197687254       -0.3846390872       -2.5093307449
 C          3.9369458714       -0.4058650626       -3.3760750235
 C          2.7255334863        0.1559596699       -3.0036011072
 C          2.5872698142        0.7468312123       -1.7563337867
 H          1.6518569979        1.1639702176       -1.4180479381
 H          1.8821983117        0.1347217315       -3.6757010383
 H          4.0358036173       -0.8638269665       -4.3479518520
 H          5.9589484980       -0.8264807541       -2.8010628477
 H          5.7133109207        0.2727937822       -0.5698879184
 H          4.1205073827        0.6402235928        2.6028651766
 H          2.4137057541        0.4604733472        4.1911647344
 H          0.2395172293       -0.5486485489        4.7879325047
 H         -1.0436133317       -1.8026929187        3.0929907505
 C         -0.4218454141       -2.3189955797        0.5644656253
 H         -0.8460113234       -3.1761954421        1.1126917348
 C          0.4014582498       -2.9060692140       -0.5715978292
 C         -0.2839589787       -3.5094687357       -1.7610395085
 C          0.5296894672       -2.2617507447       -1.9164459266
 H          1.4821635639       -2.3305466210       -2.4209009145
 H          0.0157257812       -1.3284750654       -2.0792642564
 H         -1.3606262176       -3.4285399268       -1.8050662564
 H          0.1017027883       -4.4329966328       -2.1653777398
 H          1.2747644239       -3.4335462528       -0.2000947463
 O         -0.4343476632        0.4489310690       -0.4305068522
