  62
        -98.94064670
 C          1.2962757903        1.3716087517        0.5380666034
 C          1.6357954425        0.5608866067       -0.5699797809
 C          2.4640702683       -0.6277022021       -0.2842368432
 C          2.7747902065       -0.9275846474        0.9901801490
 C          3.5452782221       -2.0887460777        1.5847363029
 C          4.3747279654       -3.0110772743        0.6953087688
 C          5.6111294346       -2.3569536271        0.0779796373
 H          6.3404557116       -2.1786040851        0.8722901659
 H          6.0556636965       -3.0620871270       -0.6275957582
 C          5.3715637836       -1.0262725872       -0.6313085866
 H          5.0005426524       -0.2904547072        0.0851064609
 H          6.3371693495       -0.6627154238       -0.9932663532
 C          4.4200310403       -1.0827269417       -1.8244553378
 H          4.7726750124       -1.8287228677       -2.5392792208
 H          4.4515938073       -0.1070860450       -2.3167503405
 C          2.9507951919       -1.3860477534       -1.4854852992
 H          2.3341772297       -1.0495702558       -2.3237011814
 H          2.7918018432       -2.4544124147       -1.3645477216
 H          4.7192929545       -3.8303687728        1.3322125182
 H          3.7507938553       -3.4548716877       -0.0748299835
 H          4.1942615295       -1.6550528985        2.3524234712
 H          2.8051248131       -2.6950342625        2.1194437138
 O          2.3381683010       -0.1631314250        2.0360287115
 C          1.6184648858        1.0009275220        1.8417952041
 O          1.3177752979        1.6006581608        2.8954653606
 H         -1.2208440530        1.2082632068        1.7383388962
 C         -1.6491070054        1.4787075331        0.7807193868
 C         -0.9029478985        2.2640059425       -0.0909217810
 C         -1.4573682196        2.6051241832       -1.3160483140
 C         -2.7234047573        2.1591587394       -1.6590887874
 C         -3.4599279760        1.3728111643       -0.7927919217
 C         -2.9153587784        1.0344793098        0.4400323997
 N         -3.6504372413        0.2157257843        1.3239165301
 S         -4.1060138728       -1.2724467700        0.6999896109
 O         -5.2796411924       -1.1030524360       -0.1186616568
 O         -4.2532941844       -2.1436349793        1.8445535098
 C         -2.7284511543       -1.7846039661       -0.3102057268
 C         -2.8464614315       -1.7922652466       -1.6846166776
 C         -1.7464941444       -2.1476783490       -2.4483576384
 C         -0.5539997571       -2.4839080565       -1.8282332051
 C         -0.4504717929       -2.4692748251       -0.4460395569
 C         -1.5455686163       -2.1121182892        0.3222391609
 H         -1.4983554762       -2.0937355985        1.4001829276
 H          0.4811660040       -2.7220808029        0.0349247521
 H          0.3024552548       -2.7558414472       -2.4239196067
 H         -1.8198316312       -2.1561805085       -3.5237671919
 H         -3.7924480721       -1.5249865156       -2.1261880026
 H         -3.1908604720        0.0875015673        2.2145090521
 H         -4.4421777122        1.0094410582       -1.0481497893
 H         -3.1404564471        2.4257142454       -2.6180493009
 H         -0.8945117439        3.2077492968       -2.0089401263
 C          0.4895542479        2.6463734160        0.3479945620
 H          0.4135348563        3.1056122761        1.3439893633
 C          1.1907265477        3.6115777479       -0.5819827443
 C          0.8480867244        5.0692190238       -0.5319940749
 C          2.1687991498        4.5912445838       -0.0095650131
 H          3.0608437295        4.8188146633       -0.5736393704
 H          2.3222450698        4.5772630156        1.0600340554
 H          0.8346234148        5.6290915434       -1.4546198595
 H          0.1033924064        5.3828017608        0.1840282291
 H          1.4297845304        3.1745829614       -1.5435083675
 O          1.2749186397        0.8083756634       -1.7477048108
