  62
        -98.93912845
 C         -1.9876552099       -1.6901202205       -0.1605854901
 C         -2.7085866701       -1.1299272610        0.9284106900
 C         -3.8300241304       -0.2493586212        0.5936470202
 C         -4.1414725305       -0.0391741711       -0.6975827697
 C         -5.2500319207        0.8395872687       -1.2104167095
 C         -4.8665009312        2.3225034188       -1.3102228793
 C         -4.7477319414        3.0557723386        0.0267308209
 H         -4.6945719717        4.1229248987       -0.1979503589
 H         -5.6528151613        2.8902648482        0.6120114209
 C         -3.5165893912        2.6661669988        0.8575748708
 H         -2.7880270511        2.1613546292        0.2178550406
 H         -3.0315665915        3.5691865389        1.2355565909
 C         -3.8198411909        1.7754379285        2.0628526106
 H         -4.4364343811        2.3247901682        2.7777721607
 H         -2.8733474408        1.5284645087        2.5508360305
 C         -4.5286734305        0.4603808983        1.7133807704
 H         -4.4967333303       -0.1901884818        2.5906500202
 H         -5.5698701106        0.6500150681        1.4536653004
 H         -3.9221937112        2.4032539492       -1.8546066393
 H         -5.6360604714        2.8193535187       -1.9056845791
 H         -5.4963365807        0.4790721788       -2.2114560796
 H         -6.1291634907        0.7311794083       -0.5746617895
 O         -3.4693846103       -0.6396602507       -1.7119500599
 C         -2.3626988201       -1.4595473304       -1.4837805201
 O         -1.8662196600       -1.9043798700       -2.5339977002
 O         -2.4174039800       -1.3641934011        2.1316011199
 C         -0.7721273497       -2.5097714902        0.2443793897
 C          0.2022568901       -1.6168161801        0.9748041798
 C          0.8549039402       -2.0594669101        2.1202015597
 C          1.7432636400       -1.2382117000        2.7899803998
 C          2.0132241096        0.0336177602        2.3171544901
 C          1.3683497894        0.4852144302        1.1723110102
 C          0.4646420497       -0.3351343499        0.5127315100
 H         -0.0390087605        0.0380309001       -0.3678532699
 N          1.6257869990        1.7719679004        0.6489035604
 S          2.4389403190        1.8217240309       -0.8148658296
 O          2.6470430285        3.2244317610       -1.0957534193
 O          1.7113334292        1.0615158609       -1.7969563297
 C          4.0062092992        1.0432046813       -0.4628440998
 C          4.0746130896       -0.3355321687       -0.4267532501
 C          5.2739565598       -0.9368975284       -0.0787034702
 C          6.3768339696       -0.1543708881        0.2276820899
 C          6.2922969792        1.2291702719        0.1860326701
 C          5.0948032090        1.8365089016       -0.1564736797
 H          4.9825965787        2.9076463816       -0.2051466795
 H          7.1522626090        1.8353653321        0.4210721302
 H          7.3079796698       -0.6267500679        0.4979324797
 H          5.3388164202       -2.0125477883       -0.0480741405
 H          3.2000812298       -0.9134350089       -0.6782062302
 H          2.0861671189        2.3892912204        1.3042376705
 H          2.7069628294        0.6790302703        2.8348574402
 H          2.2323830002       -1.5910623500        3.6847545897
 H          0.6420240706       -3.0490737003        2.4964720895
 H         -1.1332982094       -3.2529401105        0.9758247195
 C         -0.1017183795       -3.2784881498       -0.8815661805
 C          0.9555353903       -2.6783602193       -1.7536234404
 C          1.3221114806       -3.7372375094       -0.7596025606
 H          1.5748984709       -4.7190696593       -1.1299798608
 H          1.8758316506       -3.4363697494        0.1171257294
 H          0.9335348403       -2.9277877191       -2.8035657905
 H          1.2442696900       -1.6533371093       -1.5738509902
 H         -0.7925592293       -3.9541491599       -1.3734041506
