  62
        -98.93992796
 C         -1.4993996363       -1.4586568966       -0.0537757550
 C         -1.4906258005       -0.0925821306        0.3122207383
 C         -2.7923416757        0.4865492846        0.6928209846
 C         -3.8838873113       -0.2978690678        0.6870639208
 C         -5.3024226959        0.1102397334        0.9744477344
 C         -6.0344403115        0.4754846622       -0.3282911002
 C         -5.8811050793        1.9309619761       -0.7687463078
 H         -6.3347734635        2.0190078071       -1.7587586427
 H         -6.4493212036        2.5717655997       -0.0910669456
 C         -4.4417015628        2.4479928381       -0.8395804893
 H         -3.8015253005        1.6917669950       -1.2973749516
 H         -4.4334307061        3.3201476464       -1.4962681340
 C         -3.8771812488        2.8517319482        0.5305546631
 H         -4.6948007253        2.9044931530        1.2493282329
 H         -3.4580254611        3.8578133703        0.4659934794
 C         -2.7673298938        1.9408167906        1.0764108489
 H         -1.7934659384        2.2969468935        0.7260254955
 H         -2.7518734967        2.0125354347        2.1688601749
 H         -5.6679819174       -0.1885111258       -1.1155564714
 H         -7.0996916125        0.2719688437       -0.2007562838
 H         -5.7941879287       -0.7581137452        1.4178346298
 H         -5.3317653725        0.9306220021        1.6853770340
 O         -3.8410906324       -1.6171070240        0.3485548995
 C         -2.6598837509       -2.2291204752       -0.0304650389
 O         -2.7692551294       -3.4406954720       -0.3097419689
 H          2.3601501164       -1.1087483368       -0.7434544741
 C          2.0935142713       -1.3547721244        0.2696535425
 C          0.8539284291       -1.8983091324        0.5635797308
 C          0.5719369144       -2.2407922172        1.8840554281
 C          1.4986056974       -2.0203716095        2.8837823253
 C          2.7212270997       -1.4400980544        2.5924322064
 C          3.0171254673       -1.1079555646        1.2765605703
 N          4.2500464151       -0.5318210125        0.9455549791
 S          4.3961641039        0.5139332064       -0.3466709946
 O          4.4077722309       -0.2278555191       -1.5835648316
 O          5.6050030879        1.2577854025       -0.0569316858
 C          2.9953574579        1.6165992972       -0.3022652820
 C          2.2356087399        1.7901405767       -1.4397840763
 C          1.1765299585        2.6814145755       -1.4103240727
 C          0.8959357806        3.3790735316       -0.2476522927
 C          1.6667908892        3.1924752280        0.8880902718
 C          2.7290927568        2.3051919810        0.8632471024
 H          3.3481793537        2.1436639140        1.7310789929
 H          1.4372621592        3.7298957699        1.7944019139
 H          0.0660131206        4.0682810295       -0.2257449429
 H          0.5669716777        2.8199670350       -2.2895657983
 H          2.4836963130        1.2212746399       -2.3225243065
 H          4.8240829807       -0.2555776721        1.7277102113
 H          3.4397484233       -1.2500916134        3.3749617169
 H          1.2640396291       -2.2896776545        3.9027530344
 H         -0.3919361879       -2.6744024983        2.1154315071
 C         -0.2040282674       -2.1196784395       -0.4888445076
 H         -0.4119260636       -3.1973266427       -0.5570582699
 C          0.1966520394       -1.6081895172       -1.8570758258
 C          1.0507567128       -2.4467986657       -2.7581373398
 C         -0.3976931025       -2.2355734502       -3.0802646640
 H         -0.6545646559       -1.5996597830       -3.9142056858
 H         -1.0809799692       -3.0595253207       -2.9331962885
 H          1.3533075920       -3.4182809839       -2.3970762807
 H          1.7963660535       -1.9572398915       -3.3671102006
 H          0.3449500323       -0.5338254291       -1.8685107981
 O         -0.4506232518        0.6134880114        0.3156740182
