  62
        -98.94007905
 C          2.0102928446        0.3569422953       -0.5544184436
 C          1.2278013937        1.2595268237       -1.3135922898
 C          0.7941805779        2.4982201976       -0.6444796403
 C          1.1348402578        2.6949945810        0.6403889417
 C          0.7634139383        3.8546736842        1.5234821812
 C         -0.5116069361        3.5404034798        2.3255062030
 C         -1.8132593978        3.9237426040        1.6247130368
 H         -2.6350768887        3.5613638121        2.2467607947
 H         -1.8913948432        5.0120599776        1.5703377978
 C         -1.9667776397        3.3359646532        0.2201411584
 H         -3.0310819969        3.3088510687       -0.0229947857
 H         -1.6155376672        2.3026840688        0.2396216323
 C         -1.2265805969        4.1415325840       -0.8586173833
 H         -1.9165477012        4.3681773952       -1.6740945870
 H         -0.9213691480        5.0992362535       -0.4370154684
 C         -0.0101311765        3.4485561998       -1.4901947069
 H         -0.3362045853        2.8483861021       -2.3457841041
 H          0.6652866942        4.2135627191       -1.8886408049
 H         -0.5221449637        2.4672513609        2.5381240342
 H         -0.4673035961        4.0667306277        3.2815259770
 H          0.6471614633        4.7637474742        0.9400675861
 H          1.5914127052        3.9884926839        2.2230330423
 O          1.8646138864        1.7912532202        1.3461000456
 C          2.2740883382        0.5875839976        0.7976348366
 O          2.8668474707       -0.1538865909        1.6038158382
 O          0.8857781985        1.0319319833       -2.5070425317
 C          2.3711192763       -0.9755555371       -1.1955739444
 C          1.8393941070       -2.0643794086       -0.2985437223
 C          2.6077776760       -3.0512313360        0.3004616307
 C          2.0266906611       -3.9276157849        1.2023841301
 C          0.6927433389       -3.8159852749        1.5490437335
 C         -0.0864886568       -2.8346497176        0.9442788870
 C          0.4820167912       -2.0090216257       -0.0072747942
 H         -0.1226272874       -1.2537624712       -0.4837009343
 N         -1.4385128436       -2.6618671426        1.2729346911
 S         -2.1441740395       -1.1399500232        1.2154446472
 O         -1.1916947719       -0.0755424451        1.4223654218
 O         -3.2281247453       -1.2191737299        2.1734509213
 C         -2.8455662541       -1.0810458896       -0.4211256043
 C         -2.3645088980       -0.2065012512       -1.3735097666
 C         -2.9350784652       -0.2067571321       -2.6369101574
 C         -3.9743185219       -1.0768264005       -2.9254414023
 C         -4.4516813505       -1.9474714658       -1.9566563768
 C         -3.8837855240       -1.9515831430       -0.6936260732
 H         -4.2295784043       -2.6038613314        0.0907528695
 H         -5.2615355701       -2.6219817537       -2.1832596307
 H         -4.4137325130       -1.0741505475       -3.9104371273
 H         -2.5525874402        0.4692010014       -3.3850843650
 H         -1.5494531960        0.4576196739       -1.1294178213
 H         -1.7569067184       -3.1958481328        2.0678049054
 H          0.2587523969       -4.4700522087        2.2901178672
 H          2.6323727646       -4.6894012996        1.6698985366
 H          3.6633861291       -3.1128792142        0.0922095017
 H          1.7877110515       -0.9887016467       -2.1317944731
 C          3.8264695517       -1.1466880568       -1.5942334707
 C          4.6741566811        0.0425587083       -1.9319464314
 C          4.9694386112       -0.7639513782       -0.7046873174
 H          5.8482515560       -1.3925329714       -0.7076344289
 H          4.7352411197       -0.3445940830        0.2604047686
 H          5.3492977032       -0.0264605339       -2.7716544515
 H          4.2319857868        1.0201899663       -1.8031602828
 H          3.9706484004       -2.0283122965       -2.2117568994
