  62
        -98.94137066
 C          1.2548473406        1.1033261009       -0.0813252092
 C          1.6633827508        0.0261820406        0.7386341903
 C          2.7418696212       -0.8255534788        0.2136954900
 C          3.2333915312       -0.5826026280       -1.0131969599
 C          4.2932049015       -1.3485391073       -1.7650863201
 C          5.5418238016       -1.7845698073       -0.9848457802
 C          5.9685091912       -0.8367443878        0.1457242003
 H          7.0307022511       -0.6107849474        0.0356012406
 H          5.4245687809        0.1061112121        0.0683822408
 C          5.7584187912       -1.4356487186        1.5386497400
 H          6.0811551915       -2.4789181885        1.5228444295
 H          6.3981947209       -0.9060702588        2.2485799003
 C          4.3296953311       -1.3629381793        2.0761227599
 H          4.2927218212       -1.9259312098        3.0118008696
 H          4.0765191108       -0.3263682195        2.3143250704
 C          3.2409814714       -1.9020434891        1.1337009995
 H          2.3827345814       -2.2017473497        1.7417872092
 H          3.5893655617       -2.7721382387        0.5820499090
 H          5.3827352818       -2.7799223276       -0.5719770708
 H          6.3516055217       -1.8724124667       -1.7111670302
 H          3.8210129019       -2.2301489972       -2.2091674606
 H          4.5861634315       -0.6924577968       -2.5883907998
 O          2.7732149910        0.4358934623       -1.7938834894
 C          1.7784500807        1.2976548717       -1.3578223191
 O          1.4598682206        2.1737108321       -2.1844273686
 O          1.1411162108       -0.2196673901        1.8598306901
 C          0.1517210803        2.0225316103        0.4066247411
 C         -1.0767880996        1.8806185604       -0.4587308791
 C         -1.8838958398        2.9487686504       -0.8297620886
 C         -3.0161910697        2.7349228004       -1.5971393489
 C         -3.3863207793        1.4590771405       -1.9825752196
 C         -2.5884986390        0.3833088506       -1.6104160900
 C         -1.4418766191        0.6050172305       -0.8660384698
 H         -0.8143871689       -0.2355956994       -0.6134434502
 N         -2.9234896686       -0.9342283193       -1.9595717808
 S         -2.6377422283       -2.1541305098       -0.8486715814
 O         -1.2385687282       -2.5009555994       -0.8296424914
 O         -3.5408789780       -3.2143141399       -1.2454353920
 C         -3.1619157687       -1.4711235508        0.7144540789
 C         -2.2469834389       -1.1163232810        1.6840054292
 C         -2.7080687692       -0.5345630718        2.8553710695
 C         -4.0644897993       -0.3188737823        3.0377228894
 C         -4.9725793491       -0.6898894320        2.0571891791
 C         -4.5187381288       -1.2682430413        0.8840093589
 H         -5.1930117186       -1.5804436811        0.1030815586
 H         -6.0282168392       -0.5267115224        2.2024112191
 H         -4.4147400696        0.1383548471        3.9496787396
 H         -1.9939692394       -0.2494141920        3.6116461197
 H         -1.1931627089       -1.2842719206        1.5237896993
 H         -3.8182297385       -1.0405822994       -2.4144996709
 H         -4.2752614391        1.2948462406       -2.5718331298
 H         -3.6275427999        3.5748125904       -1.8899134585
 H         -1.6224108602        3.9489708203       -0.5258504281
 H         -0.1095489797        1.6532038797        1.4106931009
 C          0.6487821799        3.4476913404        0.5274546719
 C          0.0838156295        4.3591600297        1.5746303523
 C          1.4756693996        3.8241154900        1.7194174722
 H          2.3082627394        4.4968119204        1.5782535727
 H          1.6560446097        3.0572799397        2.4588097418
 H         -0.0378490008        5.4049469498        1.3360702229
 H         -0.6804107605        3.9610018791        2.2246711920
 H          0.9281017298        3.8728197010       -0.4298038878
