  62
        -98.94472334
 C          1.9994206253        1.3669783062        0.3041261452
 C          2.6475446420        0.7652691039       -0.8016978163
 C          3.8023834133       -0.0859325507       -0.4790837436
 C          4.1723740455       -0.2393800408        0.8054016419
 C          5.2906936512       -1.1223858508        1.2766177534
 C          4.7819349463       -2.5329121279        1.6059950939
 C          3.9109154960       -3.1474778334        0.5099141941
 H          3.6340723558       -4.1517330649        0.8386070436
 H          2.9853720695       -2.5730176893        0.4229389260
 C          4.5854664376       -3.2278847851       -0.8667165759
 H          4.3917712444       -4.2141668712       -1.2936939384
 H          5.6659504178       -3.1294399539       -0.7557220400
 C          4.0839655899       -2.1975834100       -1.8805423920
 H          2.9920285124       -2.2295579070       -1.9271380207
 H          4.4606409814       -2.4810116240       -2.8669357197
 C          4.5133953553       -0.7471000841       -1.6258695467
 H          5.5955944439       -0.7021746561       -1.4882265951
 H          4.2540244524       -0.1644342349       -2.5146055804
 H          5.6435135742       -3.1768062056        1.7911940146
 H          4.1918779056       -2.4830828518        2.5242204145
 H          6.0572769097       -1.1719945308        0.5059858898
 H          5.7212439094       -0.6819064470        2.1774655187
 O          3.5260506983        0.3576504596        1.8396507856
 C          2.4171135019        1.1588164317        1.6177595897
 O          1.8947001775        1.6148643376        2.6558532955
 H         -0.0692187525       -0.1711015485        0.7516216017
 C         -0.6163671029        0.2028355608       -0.1057062602
 C         -0.3037194816        1.4603833599       -0.6087025760
 C         -1.0266913556        1.9358774066       -1.6942095732
 C         -2.0092406929        1.1546256491       -2.2791719894
 C         -2.2992217111       -0.1058276504       -1.7920008751
 C         -1.5970751918       -0.5820878264       -0.6912377507
 N         -1.8988194608       -1.8530728193       -0.1732605349
 S         -3.5129874116       -2.2564455725        0.0116970611
 O         -3.5431423539       -3.2073773728        1.1008973240
 O         -4.0424683566       -2.7243727712       -1.2449273630
 C         -4.3268174673       -0.7389549369        0.4796782555
 C         -5.3236925213       -0.2168262164       -0.3189591929
 C         -5.9208080900        0.9782257495        0.0493464419
 C         -5.5092997942        1.6291907969        1.2017286546
 C         -4.5084958526        1.0900410393        1.9958182245
 C         -3.9099756209       -0.1056005584        1.6338042142
 H         -3.1320320176       -0.5514428384        2.2332505941
 H         -4.1885279661        1.5970164388        2.8921293045
 H         -5.9702644604        2.5620624799        1.4853613660
 H         -6.7005740507        1.3987800597       -0.5648138443
 H         -5.6098996689       -0.7543011806       -1.2082567127
 H         -1.3616288160       -2.1034504447        0.6433739926
 H         -3.0471870783       -0.7332361097       -2.2489130175
 H         -2.5539535512        1.5317561526       -3.1309687357
 H         -0.8140652397        2.9144992073       -2.0911812861
 C          0.7847424297        2.2493917430        0.0788678172
 H          0.4219063483        2.5270905217        1.0794305602
 C          1.1819295134        3.5095268001       -0.6610677086
 C          0.4193664110        4.7816812176       -0.4485350757
 C          1.8010248782        4.6336206834        0.1120922331
 H          2.6073643282        5.1895825427       -0.3422214773
 H          1.9120546126        4.4989929598        1.1785241534
 H         -0.4108177761        4.7581428134        0.2408831247
 H          0.2784478426        5.4451807419       -1.2883389080
 H          1.5775632773        3.3046697494       -1.6490186112
 O          2.2820384759        0.9266153388       -1.9945204011
