  62
        -98.93905609
 C          2.4334097889        1.2195599636       -0.0242477199
 C          3.0792215240        0.3568869800        0.8899654808
 C          3.6760383047       -0.8722381566        0.3364909054
 C          3.5574164219       -1.1087941469       -0.9833811520
 C          4.0194850324       -2.3323905238       -1.7242922316
 C          3.0498784955       -3.5191740925       -1.5454185975
 C          2.3908806639       -3.6227200859       -0.1696233913
 H          1.9178909681       -2.6678453328        0.0728279352
 H          1.5862874898       -4.3604591950       -0.2385670252
 C          3.3161785882       -4.0462376318        0.9707076634
 H          3.6078506517       -5.0879431431        0.8157644768
 H          2.7410519526       -3.9972761675        1.8990788925
 C          4.5923898751       -3.2237180367        1.1392328484
 H          5.2618073044       -3.4020085075        0.3020534857
 H          5.1029011566       -3.5949283770        2.0329270885
 C          4.3877184395       -1.7253244097        1.3578251539
 H          3.8344480911       -1.5758542134        2.2915764356
 H          5.3711160516       -1.2663989909        1.5189351633
 H          3.5825003264       -4.4452128471       -1.7659603728
 H          2.2470979996       -3.4073222752       -2.2780365948
 H          5.0261001720       -2.5905972790       -1.4075416541
 H          4.0574609999       -2.0713714363       -2.7836285572
 O          2.9116123759       -0.2587152277       -1.8278188478
 C          2.3232073633        0.9110694434       -1.3801614531
 O          1.7540044930        1.5732058216       -2.2675394895
 O          3.1380725887        0.5920222876        2.1290316322
 C          1.7525286417        2.4713707887        0.5039768162
 C          0.2626783444        2.3042723493        0.3298966247
 C         -0.5412950026        3.1761497236       -0.3903517887
 C         -1.8904972357        2.9090210019       -0.5538862057
 C         -2.4649715939        1.7781426760       -0.0035256943
 C         -1.6705274685        0.9045764939        0.7282776279
 C         -0.3235858769        1.1768748013        0.8943455292
 H          0.2964011364        0.4903281152        1.4588902636
 N         -2.2464719796       -0.2557395593        1.2896989843
 S         -2.8696744697       -1.3623273503        0.1826334393
 O         -2.8295416907       -2.6414629696        0.8585195318
 O         -2.1830489245       -1.2837907075       -1.0868997613
 C         -4.5657162596       -0.8545001692        0.0003087033
 C         -5.3689173932       -0.8578478566        1.1241643763
 C         -6.6916089443       -0.4635651245        1.0017583959
 C         -7.1860737696       -0.0775985633       -0.2354767985
 C         -6.3673685672       -0.0829492260       -1.3544923133
 C         -5.0424494301       -0.4747005563       -1.2387309871
 H         -4.3657318408       -0.4886832426       -2.0783598690
 H         -6.7532509824        0.2171083966       -2.3154658362
 H         -8.2159025957        0.2290414036       -0.3285562271
 H         -7.3314062360       -0.4581558288        1.8694165558
 H         -4.9451017476       -1.1703741380        2.0637890768
 H         -1.6189205458       -0.7363659379        1.9200289149
 H         -3.5129852235        1.5640723382       -0.1367360845
 H         -2.5023633446        3.5908530899       -1.1244581771
 H         -0.1094296899        4.0556991063       -0.8382546622
 H          1.9712924895        2.4896834717        1.5817323774
 C          2.3155397990        3.7227941139       -0.1314473700
 C          2.1931470638        5.0379351668        0.5768922988
 C          3.5267986364        4.3627186250        0.4755727642
 H          4.2714330917        4.7830184624       -0.1834787983
 H          3.9389122725        3.9049573414        1.3630998984
 H          2.0235625144        5.9266433893       -0.0116221203
 H          1.6994852894        5.0429874181        1.5367905472
 H          2.2452647485        3.7121820380       -1.2127831805
