  62
        -98.93959925
 C         -0.2131527003       -1.8193660032        0.6704515286
 C         -1.0186256947       -1.9483877169       -0.4855113327
 C         -2.3567301938       -1.3455595315       -0.4049949462
 C         -2.7317326215       -0.6999050999        0.7138988191
 C         -4.0768152985       -0.0790514625        0.9881539072
 C         -4.4860061066        1.1025096935        0.0882066378
 C         -5.3256365264        0.7121649061       -1.1342489176
 H         -5.8198363419       -0.2397974134       -0.9368649588
 H         -6.1165231638        1.4524323707       -1.2704920751
 C         -4.5583071434        0.6268512805       -2.4569105963
 H         -5.1917195264        0.1096706213       -3.1808796886
 H         -4.3840690089        1.6363266796       -2.8354686387
 C         -3.2041267610       -0.0795795328       -2.3902737709
 H         -2.4675142828        0.5733029250       -1.9156146286
 H         -2.8542330417       -0.2470014758       -3.4108386195
 C         -3.2219098348       -1.4191950447       -1.6292535935
 H         -2.8037451729       -2.2088752076       -2.2568395431
 H         -4.2404047755       -1.6970387543       -1.3617989516
 H         -3.5935052991        1.6410121535       -0.2251331303
 H         -5.0799891105        1.7778720987        0.7056434611
 H         -4.8379138953       -0.8606793384        0.9273544480
 H         -4.0324160016        0.2597297681        2.0249373923
 O         -1.9121301560       -0.5753889186        1.7946538816
 C         -0.6393110173       -1.1199519251        1.7985296112
 O          0.0049310847       -0.9185514529        2.8484867357
 O         -0.6484549528       -2.5459017293       -1.5294406883
 C          1.1965459172       -2.3828636766        0.6721413819
 C          1.9960334152       -1.6998061165       -0.4117748496
 C          2.7531451741       -2.3731308859       -1.3604336926
 C          3.4399607479       -1.6663934517       -2.3329915006
 C          3.4032515667       -0.2847502678       -2.3680067176
 C          2.6570707975        0.3995559593       -1.4145570461
 C          1.9596884533       -0.3113719029       -0.4532775866
 H          1.3768472786        0.2214623134        0.2842146045
 N          2.5788408262        1.8006026704       -1.4175232116
 S          2.5901404264        2.6286116185        0.0375067034
 O          3.0274478895        3.9632272333       -0.3165267428
 O          3.3882516190        1.9443069006        1.0277088372
 C          0.8877822879        2.7161373252        0.5476326811
 C         -0.0283774875        3.2760024480       -0.3212221978
 C         -1.3436096937        3.4115901017        0.0915445178
 C         -1.7183798306        2.9899995945        1.3591363338
 C         -0.7886643836        2.4238348358        2.2161385613
 C          0.5290186911        2.2873548473        1.8095557114
 H          1.2756799045        1.8405988472        2.4478638673
 H         -1.0785805317        2.0745449086        3.1941979515
 H         -2.7405646797        3.1024328724        1.6841639971
 H         -2.0717145085        3.8505385151       -0.5723603018
 H          0.3033201505        3.5994871778       -1.2939291090
 H          3.1470135252        2.2586826904       -2.1152507195
 H          3.9423775974        0.2627845030       -3.1261285987
 H          4.0173202914       -2.2004957249       -3.0724414229
 H          2.7984786836       -3.4495730804       -1.3461243899
 H          1.6377751308       -2.1043320226        1.6409075658
 C          1.1745946313       -3.8921781060        0.5598843233
 C          2.3019273863       -4.7042235700        1.1209189068
 C          0.9657390396       -4.7073595464        1.7991929180
 H          0.3556511918       -5.5958201731        1.7357889285
 H          0.8631085655       -4.1732060014        2.7328934299
 H          2.6095575321       -5.5948806912        0.5940717837
 H          3.1111555556       -4.1726118629        1.5988855145
 H          0.6978148327       -4.2352390283       -0.3507287079
