  62
        -98.94065555
 C         -1.6045894625       -1.3628024410        0.7223926127
 C         -1.6183554852        0.0137526226        1.0698011454
 C         -2.8884601800        0.7203617439        0.8794398317
 C         -3.9639027768        0.0440340610        0.4378831622
 C         -5.3390836947        0.6140425231        0.2180192138
 C         -5.5215007865        1.2916619314       -1.1470646024
 C         -4.8050791690        2.6331181729       -1.3078681942
 H         -5.1914648489        3.0947139694       -2.2188075003
 H         -5.0690290786        3.2861093536       -0.4754669142
 C         -3.2775496580        2.5250117939       -1.4178247303
 H         -2.9273113541        3.1503241685       -2.2419820732
 H         -3.0016303179        1.4958067420       -1.6590230371
 C         -2.5167694011        2.9593732382       -0.1647817140
 H         -2.6715737298        4.0272485038        0.0041077372
 H         -1.4511411506        2.7899615495       -0.3378718670
 C         -2.9105195197        2.2008156356        1.1092686751
 H         -2.1747793178        2.4263831617        1.8847021063
 H         -3.8940992322        2.5204097214        1.4528440156
 H         -6.5923344365        1.4555928505       -1.2890002986
 H         -5.1852030263        0.6031789608       -1.9258513045
 H         -5.5727294455        1.3235015653        1.0123532280
 H         -6.0375751144       -0.2231077665        0.2827872725
 O         -3.9214423770       -1.2822230422        0.1485725834
 C         -2.7373196181       -2.0114510067        0.2312300395
 O         -2.8554371894       -3.1912446561       -0.1468808855
 O         -0.6113057378        0.6179005377        1.5230061525
 C         -0.2629040470       -2.0599766532        0.8578554274
 C          0.5631723338       -1.7779671628       -0.3711517729
 C          0.0530288109       -2.0158449233       -1.6443872021
 C          0.8092767489       -1.7279276644       -2.7649540872
 C          2.0767118330       -1.1854577486       -2.6393503671
 C          2.5937572565       -0.9418535854       -1.3722304551
 C          1.8361796492       -1.2437513779       -0.2476960916
 H          2.2494278497       -1.0540559974        0.7307949899
 N          3.8782777937       -0.4096257432       -1.2198585254
 S          4.2957402427        0.5231469911        0.0979462657
 O          5.4955264389        1.2106804312       -0.3306225714
 O          4.4371101623       -0.3089062425        1.2669637674
 C          2.9849560100        1.7095084521        0.3304790499
 C          2.4385552444        1.8799872365        1.5848434934
 C          1.4620989787        2.8450866957        1.7672596226
 C          1.0491078821        3.6174596792        0.6946820849
 C          1.6026295510        3.4299953918       -0.5628107252
 C          2.5830558086        2.4702128026       -0.7496478814
 H          3.0391845411        2.3115457562       -1.7134680687
 H          1.2718002645        4.0290009832       -1.3965338235
 H          0.2880803582        4.3682427871        0.8394609507
 H          1.0218704873        2.9813180473        2.7413776326
 H          2.7800791697        1.2533991688        2.3932309096
 H          4.3324198747       -0.1107560094       -2.0693480828
 H          2.6636416859       -0.9551948193       -3.5152011377
 H          0.4059619199       -1.9203592331       -3.7477608627
 H         -0.9402019120       -2.4300302867       -1.7406764272
 H          0.2349166154       -1.5583848566        1.7039180618
 C         -0.3503400227       -3.5386616474        1.1996455056
 C          0.0520246951       -4.6303111153        0.2585513594
 C          0.9102243284       -4.3147728941        1.4445256216
 H          0.9382534386       -5.0128241708        2.2675218398
 H          1.8471081072       -3.8076192682        1.2642166609
 H         -0.5351382125       -5.5358442366        0.2661994589
 H          0.4158566849       -4.3571122777       -0.7193432271
 H         -1.1891918920       -3.7565456689        1.8520241967
