  62
        -98.95113947
 C         -1.9914299511        0.9084637427       -0.1142453954
 C         -1.5310082857        1.8423294971        0.8460422143
 C         -0.4945375382        2.7785726520        0.3904661134
 C         -0.0772934168        2.7275076154       -0.8874571631
 C          0.9961895628        3.5935033801       -1.4788175038
 C          2.3770843622        2.9313874923       -1.3787950504
 C          2.7213719160        2.4135337757        0.0176724650
 H          2.0727741959        1.5711904420        0.2691093133
 H          3.7404982010        2.0211635756       -0.0225013315
 C          2.6217796264        3.4625796436        1.1335897833
 H          3.4940356973        3.3627239032        1.7829920805
 H          2.6445546380        4.4671303942        0.7082455243
 C          1.3870663688        3.3112469313        2.0249687637
 H          1.2983847039        2.2680803062        2.3424412840
 H          1.5378938924        3.9159579329        2.9237572713
 C          0.0553651851        3.7467429020        1.3984441940
 H         -0.6878752821        3.8001681981        2.1996561130
 H          0.1617012678        4.7427078472        0.9622037699
 H          2.4116479877        2.0864422149       -2.0702765065
 H          3.1284777881        3.6592517328       -1.6905274149
 H          0.7599483006        3.7584047000       -2.5315217934
 H          1.0039310506        4.5524133556       -0.9642459024
 O         -0.5746629147        1.8477395760       -1.7927275618
 C         -1.5091587471        0.8886594624       -1.4224801411
 O         -1.8203144872        0.1031157205       -2.3370950091
 O         -1.9698551079        1.8895823478        2.0272427842
 C         -2.9736429415       -0.1672609760        0.3201771750
 C         -2.2671305371       -1.5003471835        0.2535266983
 C         -2.7168509589       -2.5852647392       -0.4865429875
 C         -1.9699316093       -3.7500559959       -0.5393808515
 C         -0.7612577210       -3.8512574465        0.1246366595
 C         -0.3072800625       -2.7748882755        0.8799800086
 C         -1.0733578851       -1.6229487407        0.9558669712
 H         -0.7205983071       -0.7938770514        1.5525074426
 N          0.9137109841       -2.8447018533        1.5757871614
 S          2.0343132809       -1.6083238941        1.4665785614
 O          3.2039897858       -2.1226344981        2.1442611057
 O          1.4795548371       -0.3864167512        1.9869896018
 C          2.3854473794       -1.4397841388       -0.2728162348
 C          1.4616379984       -0.8044218830       -1.0770796639
 C          1.7058684595       -0.7049677091       -2.4371113923
 C          2.8716429655       -1.2361110112       -2.9673794301
 C          3.7929941998       -1.8697499694       -2.1466275487
 C          3.5478051498       -1.9798210901       -0.7872730066
 H          4.2357336382       -2.4622085989       -0.1119391114
 H          4.6989630036       -2.2798352532       -2.5629936037
 H          3.0603943418       -1.1537800513       -4.0261562107
 H          0.9727968212       -0.2182622528       -3.0623338877
 H          0.5636798976       -0.3967123092       -0.6400165500
 H          1.3805787469       -3.7372626465        1.4996084827
 H         -0.1724836910       -4.7539143699        0.0640055731
 H         -2.3274584935       -4.5860973940       -1.1208628251
 H         -3.6447881375       -2.5164554526       -1.0294378107
 H         -3.1948042894        0.0500600220        1.3756379013
 C         -4.2600923110       -0.1068245595       -0.4728527607
 C         -5.5221578788       -0.6680122694        0.1089648283
 C         -5.3499504515        0.8149868253       -0.0177289583
 H         -5.9252287164        1.3410644648       -0.7646483765
 H         -5.1724340196        1.3896046347        0.8798476386
 H         -6.2207593929       -1.1598819219       -0.5506820343
 H         -5.4670816636       -1.1014639572        1.0961952026
 H         -4.1005320365       -0.2009997635       -1.5405306617
