  62
        -98.94093446
 C          1.8296461913        1.3370267292        0.6074849654
 C          1.8266218493        0.0123162413        1.1163516185
 C          3.0732076058       -0.7458532233        0.9713910902
 C          4.1474990713       -0.1557967188        0.4169552819
 C          5.5113605475       -0.7704413075        0.2525275557
 C          5.6666183028       -1.6331862755       -1.0070511884
 C          4.9345958247       -2.9748891477       -0.9675065565
 H          5.2990296177       -3.5641568566       -1.8112907674
 H          5.2062946847       -3.5088669660       -0.0563693335
 C          3.4072173405       -2.8608808943       -1.0661685329
 H          3.0335415399       -3.5883602185       -1.7900805411
 H          3.1398214585       -1.8704934806       -1.4418792769
 C          2.6635485077       -3.1070435221        0.2464843264
 H          1.5978838057       -2.9538449693        0.0602091532
 H          2.8090975209       -4.1424849937        0.5622451477
 C          3.0828336716       -2.1827485816        1.3975278254
 H          2.3611541999       -2.2925950403        2.2109343162
 H          4.0689675020       -2.4644682728        1.7666466912
 H          5.3250821257       -1.0566023257       -1.8698006262
 H          6.7335655929       -1.8276139059       -1.1389166651
 H          5.7513540758       -1.3657885829        1.1341487981
 H          6.2191519234        0.0591093186        0.1903018994
 O          4.1170796174        1.1193526819       -0.0479252076
 C          2.9542073788        1.8852643807       -0.0110557792
 O          3.0812627134        3.0012503405       -0.5453610714
 O          0.8250231974       -0.5063306221        1.6776524372
 C          0.5278815113        2.1057804263        0.7440467998
 C         -0.4080297529        1.7642123791       -0.3878471375
 C          0.0324201833        1.7549604916       -1.7077085289
 C         -0.8396129352        1.4380371059       -2.7326734463
 C         -2.1577779327        1.1136329290       -2.4618437597
 C         -2.6087438705        1.1202788040       -1.1469228039
 C         -1.7320813401        1.4508229794       -0.1213155887
 H         -2.0953728303        1.4551328471        0.8948172471
 N         -3.9477000338        0.8252260360       -0.8520060268
 S         -4.3738299811       -0.1279648512        0.4555050581
 O         -5.7801579005       -0.3957608685        0.2512627852
 O         -4.0248420741        0.5378729316        1.6837973196
 C         -3.4448998648       -1.6365159100        0.2586561163
 C         -3.9984623211       -2.6391386416       -0.5156916016
 C         -3.2822193015       -3.8068195998       -0.7180179920
 C         -2.0256205344       -3.9525340962       -0.1482720525
 C         -1.4863911890       -2.9379834716        0.6258931300
 C         -2.1965867692       -1.7655990848        0.8315782692
 H         -1.7772548408       -0.9703983429        1.4257836551
 H         -0.5109277292       -3.0327029049        1.0760396341
 H         -1.4652604834       -4.8609054820       -0.3049238177
 H         -3.7030690504       -4.5983198355       -1.3170846151
 H         -4.9836979411       -2.4910640323       -0.9275501566
 H         -4.5116078202        0.5953939448       -1.6574381090
 H         -2.8350996444        0.8626553103       -3.2637057899
 H         -0.4886863758        1.4382789950       -3.7536617013
 H          1.0615932036        2.0075478348       -1.9181732142
 H          0.0665507278        1.7240669574        1.6701350581
 C          0.7101347697        3.6057154293        0.9212022021
 C          0.3589618173        4.6081086053       -0.1325608272
 C         -0.4900190849        4.4888668579        1.0953236863
 H         -0.4496935136        5.2755019515        1.8335501283
 H         -1.4635724807        4.0329819324        0.9895970760
 H          1.0050477776        5.4656744517       -0.2404210196
 H         -0.0422779037        4.2474138109       -1.0665592371
 H          1.5760422565        3.8384180271        1.5322927543
