  62
        -98.94324386
 C         -1.9059987497       -0.5295079203       -0.7780046605
 C         -2.2790584601       -0.1291798399        0.5279161992
 C         -3.7167987302       -0.1966875900        0.8287547788
 C         -4.5684448799       -0.6422733105       -0.1129892513
 C         -6.0586495199       -0.7226808306        0.0464911582
 C         -6.7402034299        0.5671713791       -0.4309093725
 C         -6.1158356803        1.8413295994        0.1376724872
 H         -5.1018094902        1.9465320994       -0.2546230225
 H         -6.6965419203        2.6849489792       -0.2416367333
 C         -6.0737365008        1.8975088200        1.6711494972
 H         -6.4011537511        2.8880336001        1.9940249067
 H         -6.7749244108        1.1735269201        2.0878191672
 C         -4.6877834010        1.6670863305        2.2766305677
 H         -4.7287909713        1.9436793709        3.3334920376
 H         -3.9628355109        2.3267341704        1.7934778077
 C         -4.1562068707        0.2301241905        2.2011132385
 H         -4.9030285907       -0.4597650094        2.5994438785
 H         -3.2634943409        0.1717264109        2.8307619288
 H         -7.7954907000        0.5220082490       -0.1555967728
 H         -6.6748400396        0.6102571087       -1.5205766025
 H         -6.4235158596       -1.5589511909       -0.5523981015
 H         -6.2972230502       -0.9066533002        1.0922358082
 O         -4.1685111294       -1.0352096309       -1.3500232810
 C         -2.8333874593       -0.9816815708       -1.7156791506
 O         -2.6017186289       -1.3649731713       -2.8809172504
 O         -1.4570515205        0.2599501506        1.3972479593
 C         -0.4466164495       -0.4882640203       -1.1896791501
 C          0.3943047103       -1.3517961398       -0.2799752995
 C         -0.1050429497       -2.5758008897        0.1573873409
 C          0.6419508502       -3.3899716092        0.9856419114
 C          1.9151996800       -3.0139812189        1.3756837717
 C          2.4327127100       -1.8056287790        0.9284795313
 C          1.6715865101       -0.9801874794        0.1114838008
 H          2.0924841401       -0.0460303695       -0.2217777595
 N          3.7208764798       -1.3932721286        1.3028563716
 S          4.7367896701       -0.7288022189        0.1502849616
 O          4.4758665006       -1.2682018095       -1.1637638282
 O          6.0709305099       -0.9436618485        0.6706253122
 C          4.3927332898        1.0174579610        0.1785269308
 C          4.1401248993        1.6356076915        1.3871696105
 C          3.9233773291        3.0041534814        1.4052140299
 C          3.9721704894        3.7294493710        0.2241893496
 C          4.2332895498        3.0947873005       -0.9802221600
 C          4.4457142001        1.7249916805       -1.0059028994
 H          4.6387616604        1.1895440902       -1.9217820092
 H          4.2708963601        3.6592908302       -1.8985393803
 H          3.8043567092        4.7948338510        0.2420973091
 H          3.7167363487        3.5007981818        2.3395934296
 H          4.1071228691        1.0425309018        2.2857090507
 H          4.2147703397       -2.0398557283        1.9009760620
 H          2.5026500199       -3.6510800685        2.0194214521
 H          0.2335020202       -4.3303581392        1.3244049017
 H         -1.0951187795       -2.8788696000       -0.1557864793
 H         -0.4012157592       -0.9229189107       -2.1998986799
 C          0.0281966303        0.9494390598       -1.2564180305
 C          1.0700527305        1.3637682495       -2.2500306603
 C         -0.3563724395        1.7804134792       -2.4423345810
 H         -0.6173257997        2.8160210093       -2.2848996015
 H         -0.9329433792        1.2972066388       -3.2180930210
 H          1.7868695403        2.1160181898       -1.9570343104
 H          1.4719259708        0.6022410493       -2.9018852299
 H          0.0276124599        1.4302221502       -0.2847914307
