  62
        -98.93839427
 C         -2.6234729418       -0.2793033006        0.0189464375
 C         -2.2535902618       -1.2683916443       -0.9219274585
 C         -1.5932745088       -2.4603815681       -0.3780619921
 C         -1.4096128339       -2.5691946044        0.9500688684
 C         -0.7292670633       -3.7048385356        1.6647694850
 C          0.7839759490       -3.8215571512        1.3917469149
 C          1.1455806445       -4.8329483141        0.2966078274
 H          2.0398788403       -5.3786881954        0.6042153152
 H          0.3417747845       -5.5663007749        0.2169676069
 C          1.4366994049       -4.2454012345       -1.0880393240
 H          1.4143608304       -5.0642651249       -1.8111160334
 H          2.4454816981       -3.8257745339       -1.0930745804
 C          0.4905782535       -3.1411790897       -1.5620310021
 H          0.7315914514       -2.2064158690       -1.0476372631
 H          0.6824239336       -2.9573274793       -2.6219970599
 C         -1.0087792194       -3.4380854860       -1.3554181401
 H         -1.5460466262       -3.3025924821       -2.2965810045
 H         -1.1565276535       -4.4621063844       -1.0154886067
 H          1.2544884492       -4.1417556915        2.3228182384
 H          1.1794007184       -2.8338142095        1.1499912693
 H         -0.8901186713       -3.5222548240        2.7289301969
 H         -1.2252139456       -4.6421191275        1.4035617834
 O         -1.8514533332       -1.6303004086        1.8291959760
 C         -2.4017407209       -0.4381311447        1.3866941952
 O         -2.6620077532        0.3750493066        2.2950624338
 H         -0.4612429240        0.7727321234       -0.4559373445
 C         -0.7428955161        1.7750717524       -0.1690608418
 C         -2.0872102946        2.1239908260       -0.1325615289
 C         -2.4203482721        3.4277836363        0.2101499619
 C         -1.4282301308        4.3426185491        0.5226895192
 C         -0.0943938964        3.9801867415        0.5148966813
 C          0.2497987217        2.6746635023        0.1761526326
 N          1.5871149423        2.2496792975        0.2265473791
 S          2.0583392611        0.7551555411       -0.3783484701
 O          1.7795514943        0.6638728363       -1.7953565099
 O          1.5122687521       -0.2851288779        0.4567078800
 C          3.8176697335        0.8752997165       -0.1195427617
 C          4.6227756778        1.3303095405       -1.1467802692
 C          5.9858739692        1.4524999936       -0.9274270501
 C          6.5180684680        1.1209491187        0.3095458479
 C          5.6981858018        0.6629325467        1.3302392304
 C          4.3343761547        0.5387596336        1.1170296891
 H          3.6583811218        0.1808864865        1.8764395597
 H          6.1152178807        0.4023188226        2.2895836683
 H          7.5789767779        1.2167535731        0.4782602022
 H          6.6259479349        1.8044172357       -1.7202834351
 H          4.1658128814        1.5646056461       -2.0948047762
 H          2.2651071061        2.9785283229        0.0597222756
 H          0.6734997373        4.6906428669        0.7782746545
 H         -1.7006442835        5.3535498847        0.7855480530
 H         -3.4557652625        3.7260633054        0.2371622220
 C         -3.1098470422        1.0667200310       -0.4835096288
 H         -3.1443754353        0.9756886021       -1.5805918749
 C         -4.5001548633        1.3843952369        0.0245271433
 C         -5.4467637663        2.1936258694       -0.8096822201
 C         -5.6756315114        0.7240942974       -0.6296724640
 H         -6.4957216471        0.3985058589       -0.0078484607
 H         -5.4716562814        0.0672934490       -1.4629442231
 H         -5.0988504905        2.5352451216       -1.7729774017
 H         -6.1156354064        2.8787337390       -0.3109769075
 H         -4.5286153914        1.5064380880        1.1012009520
 O         -2.4519455595       -1.1501201989       -2.1633543470
