  62
        -98.94185763
 C         -1.1771703267       -1.5501075836        0.4970359680
 C         -2.1364239150       -1.2103351553       -0.4854497489
 C         -3.1992200015       -0.2822572477       -0.0635574022
 C         -3.2084871105        0.1872194413        1.1955891071
 C         -4.2086959098        1.1116796815        1.8432918291
 C         -4.6653926114        2.3354517330        1.0370931359
 C         -3.6087585790        2.9304143272        0.0941413467
 H         -2.6206999992        2.5192269788        0.3145054411
 H         -3.5489158575        4.0074861638        0.2644445902
 C         -3.9373270948        2.7099882984       -1.3846893242
 H         -3.3787793790        3.4390513869       -1.9769016917
 H         -5.0010391209        2.9054480393       -1.5400845321
 C         -3.5964018115        1.3260839009       -1.9351040847
 H         -2.5096384431        1.2087418626       -1.9829424788
 H         -3.9702478801        1.2698707949       -2.9605070728
 C         -4.1604132170        0.1387274529       -1.1370212856
 H         -4.2468724717       -0.7127728631       -1.8174134251
 H         -5.1445737112        0.3654150284       -0.7342014408
 H         -4.9714875056        3.0926512136        1.7610680166
 H         -5.5511820780        2.0797629350        0.4568282074
 H         -3.7301822120        1.4429625873        2.7680997995
 H         -5.0859680761        0.5220231497        2.1255511094
 O         -2.2658354108       -0.1717754696        2.1124511710
 C         -1.2141464523       -1.0074224008        1.7791711857
 O         -0.3891311765       -1.1902095797        2.6991661995
 O         -2.1109252949       -1.6580532976       -1.6614114047
 C          0.0040390798       -2.4274529549        0.1292389985
 C          0.8268896866       -1.7598980262       -0.9484550574
 C          1.4907603921       -2.4577819192       -1.9498813143
 C          2.2467907988       -1.7785037848       -2.8900668026
 C          2.3775060555       -0.4018544582       -2.8436232264
 C          1.7213418772        0.3040570700       -1.8421132325
 C          0.9557041435       -0.3791514240       -0.9124129896
 H          0.4289068516        0.1842776575       -0.1584939057
 N          1.8143589506        1.7006855384       -1.7428588754
 S          1.8418325387        2.4107683675       -0.2282489814
 O          0.5276954612        2.3967919512        0.3638636350
 O          2.4116481520        3.7208066458       -0.4629088707
 C          2.9906784668        1.4169661830        0.7079375771
 C          2.5576023975        0.5701757222        1.7069640060
 C          3.4878368255       -0.2255924208        2.3586272031
 C          4.8258898811       -0.1620212928        2.0047000285
 C          5.2476371736        0.7021489405        1.0050104225
 C          4.3231695256        1.4963039086        0.3482358346
 H          4.6120931095        2.1886070159       -0.4258083702
 H          6.2899126962        0.7551957126        0.7349658209
 H          5.5425687577       -0.7873023565        2.5132950245
 H          3.1484163365       -0.8933412077        3.1346667905
 H          1.5115481812        0.5286586007        1.9690602560
 H          2.4671823693        2.1350906196       -2.3779937056
 H          2.9691768683        0.1231146650       -3.5775173580
 H          2.7487469483       -2.3312522717       -3.6694435200
 H          1.4086099627       -3.5312618319       -1.9991803047
 H          0.6288420362       -2.4899780188        1.0335198425
 C         -0.4538541464       -3.8223654008       -0.2437541949
 C          0.4082265833       -5.0095507279        0.0610582464
 C         -0.8424998282       -4.7695841558        0.8502946710
 H         -1.6893046044       -5.4204187992        0.6928604681
 H         -0.7482995792       -4.4155716431        1.8669560225
 H          0.4190907756       -5.8315473170       -0.6387495133
 H          1.3542082386       -4.8303488179        0.5493825049
 H         -1.0460193688       -3.8351521681       -1.1511604038
