  62
        -98.94965876
 C         -1.4985413939       -1.0714777125        0.0377624171
 C         -2.5156457846       -0.6425568992        0.9207657525
 C         -3.0431069282        0.7071541012        0.6857331963
 C         -2.5173461340        1.4561623864       -0.3012329600
 C         -2.9829066870        2.8343301582       -0.6708136007
 C         -4.0760136126        2.7860266076       -1.7476108829
 C         -5.2077772505        1.8076612341       -1.4334355561
 H         -5.9350977387        1.8800462637       -2.2448082326
 H         -4.8112332553        0.7899625931       -1.4450368144
 C         -5.9104862647        2.0608414013       -0.0924571261
 H         -5.6951241474        3.0723537773        0.2536882235
 H         -6.9897585468        1.9921966247       -0.2436842710
 C         -5.5512619656        1.0625932298        1.0096392373
 H         -6.2569364746        1.1970374745        1.8337498479
 H         -5.6752884886        0.0433667066        0.6352482250
 C         -4.1385203976        1.1916577100        1.5938489558
 H         -3.9567093714        2.2249060371        1.8981437763
 H         -4.0880039763        0.5596427799        2.4857226447
 H         -4.4839447818        3.7910387333       -1.8696645260
 H         -3.6169662953        2.4878101642       -2.6928689286
 H         -3.3557803311        3.3353979246        0.2206123919
 H         -2.1256992234        3.3914263543       -1.0533995238
 O         -1.5249338283        1.0194522206       -1.1155472178
 C         -0.9860879150       -0.2461933046       -0.9623069187
 O         -0.0763173173       -0.5204691551       -1.7694419986
 O         -2.9570819960       -1.3545933253        1.8649957985
 C         -0.8903532957       -2.4494538354        0.2197125921
 C          0.6036887974       -2.3445210811        0.4042703463
 C          1.5025898401       -3.2511902947       -0.1447130367
 C          2.8648883247       -3.0947286273        0.0450083874
 C          3.3607424592       -2.0223454848        0.7634999687
 C          2.4690888560       -1.1161008656        1.3245225640
 C          1.1055715428       -1.2979611434        1.1674728086
 H          0.4296061598       -0.5824091737        1.6131755511
 N          2.9169449670        0.0160341200        2.0411310942
 S          2.6064623273        1.4999762730        1.3198231101
 O          3.2366494531        2.4769948127        2.1829116272
 O          1.1913785051        1.6570602894        1.1058182901
 C          3.4965404255        1.4158777127       -0.2242341800
 C          4.7783809815        1.9315914180       -0.2689903078
 C          5.5165284346        1.7987599051       -1.4332983237
 C          4.9667703209        1.1434664943       -2.5252751969
 C          3.6813885418        0.6289356762       -2.4619231537
 C          2.9331558255        0.7616886714       -1.3012859744
 H          1.9284512101        0.3721830891       -1.2367118280
 H          3.2456269166        0.1187309391       -3.3059531668
 H          5.5413785289        1.0341643362       -3.4315318689
 H          6.5151984382        2.2016388645       -1.4846355785
 H          5.1613237688        2.4344726557        0.6044969109
 H          3.8976578959       -0.0254903854        2.2860339277
 H          4.4240260913       -1.8830665804        0.8887095560
 H          3.5496681514       -3.8067793528       -0.3893112003
 H          1.1352924451       -4.0796396539       -0.7280879799
 H         -1.3283178433       -2.8439747174        1.1493771895
 C         -1.2875109058       -3.3551107978       -0.9289717362
 C         -1.4772813987       -4.8256775082       -0.7090861895
 C         -2.6655988209       -3.9433107891       -0.9414460601
 H         -3.1881496780       -4.0139395556       -1.8836216413
 H         -3.3072016743       -3.7142721545       -0.1029483686
 H         -1.1865208162       -5.5065220880       -1.4948477846
 H         -1.3197149482       -5.2068737645        0.2885045350
 H         -0.8758121086       -3.0252716474       -1.8764742221
