  62
        -98.93770679
 C          1.2095210379        1.3742239221        0.5278772830
 C          2.0502674247        1.0069810369       -0.5489444443
 C          3.2162943481        0.1642678281       -0.2175703746
 C          3.3827286900       -0.2764375831        1.0425337780
 C          4.4763067871       -1.1114653688        1.6760569664
 C          5.4946335386       -1.8496925936        0.8117992495
 C          4.9204518539       -3.0112886216        0.0003238228
 H          5.7018156617       -3.3837701767       -0.6656966905
 H          4.6575084514       -3.8183178286        0.6890050504
 C          3.6756019614       -2.6926135058       -0.8246851732
 H          3.3621868124       -3.6125773204       -1.3264354602
 H          2.8567927580       -2.4016507803       -0.1622427614
 C          3.8563670174       -1.6190503136       -1.8957779190
 H          2.9390582698       -1.5925358859       -2.4907918867
 H          4.6787414784       -1.8963141285       -2.5584948384
 C          4.1079047583       -0.1959804747       -1.3710226488
 H          5.1535004266       -0.0495781640       -1.1113120365
 H          3.8662659150        0.5044140063       -2.1759724420
 H          6.0153285969       -1.1503246009        0.1643401396
 H          6.2408508524       -2.2637619312        1.4953479893
 H          5.0170164004       -0.4323420457        2.3448395913
 H          3.9631085787       -1.8330907627        2.3201855848
 O          2.5013161300        0.0447781316        2.0357063554
 C          1.3980006483        0.8457175918        1.8051430965
 O          0.6656780955        1.0071171012        2.8029622383
 H         -0.7272177494       -0.2973377108        0.0010117249
 C         -1.1289900617        0.3101389918       -0.7961067884
 C         -0.8368520168        1.6674567680       -0.8308057753
 C         -1.3233987387        2.4225295831       -1.8891085548
 C         -2.0770477098        1.8223400811       -2.8837031622
 C         -2.3828467047        0.4745285569       -2.8334893223
 C         -1.8978031474       -0.2898407306       -1.7780289134
 N         -2.1822813226       -1.6606020743       -1.6751244089
 S         -2.4186282850       -2.3266487836       -0.1604703709
 O         -1.1565324162       -2.5287565683        0.5071132790
 O         -3.1928466316       -3.5234784858       -0.4141178493
 C         -3.4204852199       -1.1340629016        0.7109925395
 C         -2.9085670385       -0.4216943434        1.7758437104
 C         -3.7072178654        0.5313602444        2.3892368038
 C         -4.9962292938        0.7539012226        1.9315570342
 C         -5.5003164119        0.0225894896        0.8664377536
 C         -4.7062022444       -0.9283431891        0.2479863706
 H         -5.0659478745       -1.5236450190       -0.5753875384
 H         -6.5052521224        0.1934665454        0.5158901930
 H         -5.6105107376        1.4999644635        2.4103343166
 H         -3.3083248247        1.0965960963        3.2167292616
 H         -1.8997204040       -0.6091259933        2.1108951116
 H         -2.8389712628       -2.0149590978       -2.3544944050
 H         -2.9764525341        0.0125237003       -3.6072388791
 H         -2.4391936216        2.4167390280       -3.7086882428
 H         -1.0944243965        3.4735982789       -1.9497587754
 C         -0.0322626609        2.2230602647        0.3191292428
 H         -0.6299989467        2.0673682880        1.2335809127
 C          0.2237100516        3.7195487729        0.2253291945
 C          1.4582683534        4.3317719493        0.8156481354
 C          1.2719493331        4.3053090974       -0.6703028214
 H          1.0521112652        5.2359566119       -1.1730209937
 H          1.8670184097        3.6214863259       -1.2534480372
 H          2.1877776272        3.6639221678        1.2513719318
 H          1.3663958079        5.2753303070        1.3326142796
 H         -0.6917426441        4.2918713762        0.3393611527
 O          1.8577959317        1.3656346675       -1.7390947323
