  62
        -98.94442807
 C          1.9480450585        1.0806893761       -0.2133506585
 C          2.4446430608       -0.0805581060       -0.8524074622
 C          3.9008640775       -0.2730088664       -0.7825982502
 C          4.6601134093        0.6477540426       -0.1610989318
 C          6.1452629159        0.5476874468        0.0302002378
 C          6.4875798789       -0.1424130602        1.3581287987
 C          5.7333295120       -1.4525024293        1.5860303740
 H          6.0772796152       -1.8644711296        2.5372231819
 H          4.6679249382       -1.2372366246        1.6952780668
 C          5.9254881658       -2.4969787623        0.4776572683
 H          6.8073225327       -2.2507546136       -0.1149541592
 H          6.1071796833       -3.4693093775        0.9403738206
 C          4.7217923144       -2.6645033028       -0.4517890591
 H          4.8769080706       -3.5663931775       -1.0500688961
 H          3.8169164440       -2.8182630312        0.1419479175
 C          4.4655089044       -1.5078774754       -1.4262461713
 H          5.3822837486       -1.2754871952       -1.9720456030
 H          3.7116578749       -1.8409790282       -2.1458106749
 H          6.2431442335        0.5398552320        2.1755462536
 H          7.5625046504       -0.3302782184        1.3823530092
 H          6.5771480732       -0.0056868214       -0.8012867089
 H          6.5600479266        1.5570369760        0.0378946670
 O          4.1477506362        1.7647047961        0.4160008060
 C          2.7832845601        2.0026026003        0.4172673623
 O          2.4423411372        3.0496167455        1.0038607417
 H         -1.6925202900       -0.0769393863       -1.2226726931
 C         -1.3565592758       -0.4170469377       -0.2580995541
 C         -0.2886393683        0.1935503853        0.3790451062
 C          0.1148232206       -0.2949732495        1.6200243631
 C         -0.5178613607       -1.3799614666        2.1930447158
 C         -1.5785863458       -1.9932539053        1.5486230499
 C         -1.9965070008       -1.5086694541        0.3160552574
 N         -3.0618057413       -2.1199610406       -0.3648799886
 S         -4.2598683328       -1.1898188355       -1.0664848088
 O         -5.3474897228       -2.1147711118       -1.2966265581
 O         -3.7524477571       -0.5019713793       -2.2251710616
 C         -4.7104955933       -0.0248805291        0.2060943288
 C         -4.1786519774        1.2481824240        0.1912577117
 C         -4.4844869504        2.1125278123        1.2308783487
 C         -5.3109161468        1.6912781617        2.2608985073
 C         -5.8420897624        0.4101849812        2.2581518004
 C         -5.5366858496       -0.4596419296        1.2244505174
 H         -5.9370056039       -1.4595338593        1.1793916507
 H         -6.4889840239        0.0877952757        3.0580676096
 H         -5.5442297098        2.3671285213        3.0684768838
 H         -4.0741425106        3.1098628114        1.2334464962
 H         -3.5441633524        1.5412108246       -0.6287122539
 H         -3.4601758702       -2.9144564774        0.1138903778
 H         -2.0692208866       -2.8472938303        1.9902277602
 H         -0.1855683176       -1.7523970888        3.1504125713
 H          0.9448031515        0.1839566616        2.1223035782
 C          0.4562345835        1.3649582497       -0.2127476133
 H          0.3139029678        2.2330762184        0.4474696330
 C         -0.0015908623        1.7361104648       -1.6075414051
 C         -1.1433147785        2.6868336985       -1.7992828493
 C          0.2560111504        3.1228577770       -2.1122582146
 H          0.5412792026        3.2503484561       -3.1457376253
 H          0.7400555263        3.8133457897       -1.4366763951
 H         -1.8274690449        2.5135983092       -2.6171352240
 H         -1.6038373138        3.0960008795       -0.9124422005
 H          0.1109978073        0.9232078627       -2.3163054196
 O          1.7139704710       -0.9150942336       -1.4475130275
