  62
        -98.93320262
 C          2.0840860333        1.4271127561       -0.1615449700
 C          1.6197804069        0.0957486178       -0.0291812472
 C          2.5342894032       -0.8359828030        0.6460231494
 C          3.7290963260       -0.4083206300        1.0888335649
 C          4.7655280889       -1.2416275308        1.7923114646
 C          5.6623054553       -2.0512170385        0.8450707267
 C          4.9909531259       -3.2508028253        0.1743275909
 H          4.5110862826       -3.8683765699        0.9341972291
 H          5.7850045171       -3.8490775375       -0.2770637676
 C          3.9724117592       -2.8822898543       -0.9135518479
 H          4.1402560774       -3.5056948606       -1.7946640099
 H          4.1282106159       -1.8456133318       -1.2207973294
 C          2.5110286175       -3.0613867068       -0.5018666917
 H          2.3071012519       -4.1199352513       -0.3258390413
 H          1.8815098283       -2.7253857973       -1.3295458570
 C          2.1122971535       -2.2709062207        0.7507722629
 H          2.5451766357       -2.7298495868        1.6392251003
 H          1.0235683623       -2.2920365155        0.8445149068
 H          6.5075903900       -2.4172583387        1.4325081806
 H          6.0572575256       -1.3792876984        0.0794262120
 H          4.2780801760       -1.9142442690        2.4988416025
 H          5.3951119354       -0.5471336757        2.3528287543
 O          4.1358883071        0.8822414840        0.9526647664
 C          3.3327630779        1.8206770335        0.3287657193
 O          3.8344877709        2.9621945063        0.2708566974
 O          0.5092067528       -0.3179928201       -0.4450102412
 C          1.2551046633        2.5232470888       -0.8256059285
 C         -0.1022221795        2.5794871067       -0.1686479772
 C         -0.2066368320        3.3382961114        0.9966491857
 C         -1.3798373409        3.3817925912        1.7257074239
 C         -2.4879576501        2.6649629932        1.3113589142
 C         -2.3965054766        1.8968634170        0.1600999140
 C         -1.2185740877        1.8648827039       -0.5774529758
 H         -1.1821179280        1.2377150378       -1.4508919421
 N         -3.5240927339        1.1630465957       -0.2565092262
 S         -4.1427588444       -0.0297375989        0.7548997648
 O         -5.5846957489        0.0676388586        0.6957610630
 O         -3.5582542955        0.1092765154        2.0658913882
 C         -3.6479141245       -1.5814730029        0.0195102015
 C         -2.3035802077       -1.8357608500       -0.1695958622
 C         -1.9271441502       -3.0480189973       -0.7273248747
 C         -2.8899267200       -3.9807151811       -1.0806762402
 C         -4.2354935237       -3.7087881785       -0.8845931138
 C         -4.6205051552       -2.4984766716       -0.3305110936
 H         -5.6537759732       -2.2413636364       -0.1629828509
 H         -4.9839418527       -4.4337257870       -1.1616037058
 H         -2.5886724146       -4.9221615117       -1.5124769024
 H         -0.8785473745       -3.2463338752       -0.8841404625
 H         -1.5615381615       -1.0993338421        0.0994440488
 H         -3.4501598202        0.8136647055       -1.2016266387
 H         -3.4089055403        2.6735025360        1.8716658327
 H         -1.4321614553        3.9783966760        2.6241650989
 H          0.6593562976        3.8897036415        1.3378709993
 H          1.7692701382        3.4567351494       -0.5501765167
 C          1.3681231205        2.4459609651       -2.3436005741
 C          0.7946419446        1.3620592020       -3.2045096691
 C          0.2521486727        2.7572766658       -3.2941560598
 H          0.4859088389        3.3365544376       -4.1751062746
 H         -0.7223299501        2.9651983764       -2.8816307956
 H          1.4052691031        1.0006445906       -4.0201696591
 H          0.2163224317        0.5847193548       -2.7332078934
 H          2.3551760962        2.7908995284       -2.6431006527
