  62
        -98.93877744
 C         -2.7895969013       -0.1837414535       -0.3526442430
 C         -2.8969207724        0.7401660555        0.7192968723
 C         -2.5476211074        2.1313413356        0.4216060025
 C         -2.1564165917        2.4652622693       -0.8210681200
 C         -1.7335874664        3.8332075149       -1.2812693110
 C         -0.2634149853        4.1482070710       -0.9705213744
 C          0.0364552136        4.4595733190        0.4965365999
 H          1.0328905314        4.9043040450        0.5321771440
 H         -0.6692905921        5.2058620631        0.8639086663
 C          0.0180758013        3.2311228770        1.4171921637
 H          0.1193113785        2.3215985409        0.8185877452
 H          0.8874116037        3.2568541125        2.0794252831
 C         -1.2200998706        3.1166468305        2.3072002378
 H         -1.1464647799        2.1799500782        2.8663210721
 H         -1.2298375461        3.9397622077        3.0259734747
 C         -2.5546682382        3.1165799894        1.5508185616
 H         -2.7769025421        4.1170226106        1.1799980318
 H         -3.3411895595        2.8162842299        2.2478601262
 H          0.3500901304        3.3007300354       -1.2874629472
 H          0.0204175460        5.0151678159       -1.5719548641
 H         -1.8712926670        3.8549153745       -2.3644298467
 H         -2.3755366034        4.5912691420       -0.8316829147
 O         -2.1089514850        1.5636210671       -1.8339578598
 C         -2.3696908268        0.2146800819       -1.6220091035
 O         -2.2034232895       -0.4865025601       -2.6389557611
 O         -3.2695155742        0.4078010057        1.8769209748
 C         -3.0108084956       -1.6452754909        0.0026988617
 C         -1.7124842142       -2.1790094764        0.5560467755
 C         -1.6440842823       -2.8426173340        1.7743163803
 C         -0.4214688259       -3.2147158911        2.3087085973
 C          0.7573964219       -2.9156731652        1.6484081446
 C          0.6948347723       -2.2703732555        0.4227929675
 C         -0.5284623531       -1.9232111777       -0.1222965043
 H         -0.5574251381       -1.4051685674       -1.0711878183
 N          1.9045871762       -1.8744844559       -0.2238711752
 S          2.2567564095       -0.2650492469        0.1901927574
 O          2.0670692981       -0.1217958712        1.6111827453
 O          1.5178267335        0.6448059222       -0.6604989343
 C          3.9950684469       -0.1886533456       -0.1969145014
 C          4.8668726868       -0.8895720208        0.6139788927
 C          6.2187644128       -0.8776978546        0.3121056604
 C          6.6735915900       -0.1697736090       -0.7909112548
 C          5.7863534959        0.5288502285       -1.5949808228
 C          4.4317420404        0.5189281576       -1.2990289745
 H          3.7054681921        1.0488382124       -1.8946179761
 H          6.1419983046        1.0795323040       -2.4509783853
 H          7.7264157891       -0.1616020267       -1.0248676363
 H          6.9121187900       -1.4193286781        0.9350549990
 H          4.4663557116       -1.4185166858        1.4626079351
 H          1.7956920778       -1.8914918653       -1.2310745830
 H          1.7175694977       -3.1570389590        2.0733651537
 H         -0.3865128270       -3.7196208018        3.2619970791
 H         -2.5555651480       -3.0359284084        2.3209197175
 H         -3.7420080125       -1.6358534307        0.8266123181
 C         -3.5899587286       -2.4900482899       -1.1197968296
 C         -2.8063539701       -3.5422607090       -1.8402197577
 C         -3.8838169283       -3.9416829596       -0.8801338266
 H         -4.8007506308       -4.3547887190       -1.2714365167
 H         -3.5764613097       -4.3594543464        0.0666628394
 H         -2.9794058655       -3.6552151953       -2.8993625693
 H         -1.7795707666       -3.7018572696       -1.5496121639
 H         -4.3084119638       -1.9367806374       -1.7147811379
