  62
        -98.93898689
 C          1.9088449999        0.5096261814       -0.5573175588
 C          3.0007971497        1.2716888407       -0.0809570874
 C          4.3333301898        0.6513104810       -0.1758852483
 C          4.4481192200       -0.5885232881       -0.6877161405
 C          5.6666674101       -1.4496928375       -0.9480239119
 C          7.0156416700       -1.1067532585       -0.3211332412
 C          7.0699976499       -1.2532813811        1.1990908486
 H          7.0042817100       -2.3154580616        1.4481697367
 H          8.0414175098       -0.8908302816        1.5424350393
 C          5.9685996098       -0.5305710226        1.9706137797
 H          4.9976066098       -0.9563742422        1.7089876189
 H          6.1266133797       -0.7216495744        3.0355504194
 C          5.9172730696        0.9831613578        1.7730125024
 H          5.2028498895        1.3848698464        2.4965476230
 H          6.8948992795        1.4159949975        1.9934960232
 C          5.4755690297        1.4546901701        0.3764947332
 H          5.1116048595        2.4822229899        0.4669707749
 H          6.3100978997        1.4647307314       -0.3204235868
 H          7.3274444999       -0.1101852479       -0.6194418894
 H          7.7416668501       -1.8054322177       -0.7458719923
 H          5.3814456902       -2.4641318581       -0.6515111537
 H          5.7867327502       -1.4708822656       -2.0369632719
 O          3.3621108501       -1.2875625475       -1.1314933518
 C          2.0762322400       -0.7733406977       -1.0742705210
 O          1.1996909102       -1.5444174071       -1.5078764524
 H         -1.6877578900       -0.4902253682       -1.0503851208
 C         -1.4119376901       -0.4840543800       -0.0099984608
 C         -0.3353546902        0.2656999394        0.4345572006
 C          0.0033368897        0.2146319171        1.7856024605
 C         -0.7127579703       -0.5733286145        2.6643075491
 C         -1.7882798402       -1.3213660839        2.2162584177
 C         -2.1339284501       -1.2799170916        0.8712916577
 N         -3.2025942699       -2.0534616409        0.3919087863
 S         -4.3304218099       -1.4307459992       -0.6695823027
 O         -5.3927472998       -2.4120667893       -0.6810358745
 O         -3.7232349898       -1.1303203869       -1.9401373021
 C         -4.9045261402        0.0646403294        0.1153270699
 C         -4.2581452603        1.2580150099       -0.1364128980
 C         -4.6784759605        2.3985813787        0.5299520239
 C         -5.7302808805        2.3274144170        1.4301852337
 C         -6.3708910304        1.1210533465        1.6699029916
 C         -5.9527221902       -0.0234835223        1.0110428496
 H         -6.4281840301       -0.9794875726        1.1594414179
 H         -7.1914845805        1.0694233052        2.3672211314
 H         -6.0538422607        3.2183043661        1.9449850952
 H         -4.1821401205        3.3373309791        0.3424357656
 H         -3.4475030902        1.2778279713       -0.8457091679
 H         -3.6524696099       -2.6228989521        1.0935339353
 H         -2.3460960802       -1.9441414051        2.8990878366
 H         -0.4360478104       -0.6055472663        3.7072754591
 H          0.8470908796        0.7958790866        2.1316706916
 C          0.5141186798        1.1077166211       -0.4838692079
 H          0.6489080896        2.0946050603       -0.0181926561
 C         -0.0667825501        1.3000890534       -1.8676309176
 C         -1.1236283902        2.3382260137       -2.0935200559
 C          0.2615840698        2.5503265948       -2.6251424954
 H          0.4244132499        2.4789921466       -3.6901031955
 H          0.8921907297        3.2773910540       -2.1345700641
 H         -1.9159099401        2.1220869848       -2.7951523163
 H         -1.4291873504        2.9294880822       -1.2432518649
 H         -0.1268197900        0.3792439444       -2.4369295492
 O          2.8709675496        2.4290782298        0.4006829446
