  62
        -98.94763543
 C          0.7804464522        1.2650656285        0.0491770128
 C          1.4984862610        0.6242901940        1.0858122857
 C          2.4091111546       -0.4487600611        0.6658491983
 C          2.4632947015       -0.7937284511       -0.6338039521
 C          3.4208711210       -1.7913148661       -1.2166318974
 C          4.7222572920       -1.1081563169       -1.6632782072
 C          5.3352213540       -0.1847909518       -0.6102905507
 H          6.2606117208        0.2163928470       -1.0293635609
 H          4.6654409700        0.6620584618       -0.4436916836
 C          5.6360179063       -0.8634078310        0.7333757657
 H          6.6308368495       -0.5588379114        1.0652393115
 H          5.6548630681       -1.9463391136        0.6061057978
 C          4.6624136943       -0.5027114833        1.8568762766
 H          5.0828937737       -0.8600689900        2.8007825470
 H          4.5726564432        0.5841257352        1.9303958699
 C          3.2533872743       -1.0953797671        1.7276763977
 H          3.3269298072       -2.1724782524        1.5656890645
 H          2.7312791695       -0.9232885819        2.6736925806
 H          4.5118731114       -0.5138846666       -2.5553356139
 H          5.4430985968       -1.8821505669       -1.9327940905
 H          3.6385490002       -2.5600337401       -0.4783505882
 H          2.9510836947       -2.2503403475       -2.0869573466
 O          1.6869135090       -0.2180311226       -1.5860362366
 C          0.8491365616        0.8430947224       -1.2785940051
 O          0.2318601905        1.3106799076       -2.2535328850
 H         -1.5311779981        0.2271331562        0.5350133835
 C         -2.0987125895        1.0214263673        0.0724095923
 C         -1.5059380166        2.2658681318       -0.0992907044
 C         -2.2527387211        3.2832973386       -0.6797023275
 C         -3.5549654556        3.0505126223       -1.0862152602
 C         -4.1394658953        1.8098115630       -0.9172647916
 C         -3.4017085423        0.7849005782       -0.3333412592
 N         -3.9558522433       -0.4901907993       -0.1850714653
 S         -3.3631733627       -1.6223145354        0.8763377052
 O         -4.3855680691       -2.6475268055        0.8987613772
 O         -3.0277884423       -1.0464429181        2.1579649345
 C         -1.9155676841       -2.2847080134        0.0821392433
 C         -1.9883291014       -2.6085596801       -1.2578193591
 C         -0.8915943218       -3.1982234577       -1.8644272611
 C          0.2483355917       -3.4642186007       -1.1221336643
 C          0.3082102017       -3.1270543274        0.2205110881
 C         -0.7821308668       -2.5285748485        0.8305780750
 H         -0.7697734225       -2.2400276605        1.8704431899
 H          1.1954154434       -3.3283140778        0.7983617235
 H          1.0953388625       -3.9389211165       -1.5912450206
 H         -0.9298669163       -3.4518943231       -2.9116042554
 H         -2.8939527218       -2.3968781037       -1.8015812218
 H         -4.9399760676       -0.5825532168       -0.3821920007
 H         -5.1539939106        1.6283518402       -1.2370233635
 H         -4.1234090691        3.8481068676       -1.5399576477
 H         -1.8152805099        4.2583372714       -0.8176124137
 C         -0.0910848772        2.4597367934        0.3851246268
 H         -0.1138384716        2.5083114652        1.4850162316
 C          0.5561655006        3.7249116456       -0.1437853955
 C          0.3953182829        5.0261006870        0.5823496472
 C          1.7124491022        4.3123388113        0.6066654469
 H          2.5368354943        4.7261763734        0.0453913183
 H          2.0105557721        3.8176138471        1.5197588032
 H         -0.1964226696        5.0251963754        1.4853576243
 H          0.3177454482        5.9342257849        0.0035780544
 H          0.6020596851        3.7432026063       -1.2273242512
 O          1.3963564531        0.9457540109        2.3016868906
