  62
        -98.94122321
 C         -2.4160227900       -1.1479031596        0.4763296703
 C         -2.6716232198       -0.3397755997       -0.6581276498
 C         -3.1461052298        1.0251309804       -0.3818047400
 C         -3.3185831998        1.4270224005        0.8891793600
 C         -3.7602220098        2.7987022906        1.3074624498
 C         -2.5624406297        3.7224469805        1.5654586898
 C         -1.5227884196        3.7288439503        0.4438568698
 H         -0.7598498296        4.4628258503        0.7143531398
 H         -1.0191526497        2.7592605303        0.4014910500
 C         -2.0826175895        4.0703312302       -0.9439516602
 H         -3.0443873795        4.5758267203       -0.8443444804
 H         -1.3963649594        4.7659149001       -1.4318808603
 C         -2.2317017495        2.8694371001       -1.8800943201
 H         -1.2988328396        2.2971227301       -1.8782449800
 H         -2.3826549594        3.2459698300       -2.8958336202
 C         -3.3933270696        1.9172423902       -1.5652217701
 H         -4.3134609196        2.4905655903       -1.4349625002
 H         -3.5212809896        1.2509094501       -2.4235467800
 H         -2.9384419097        4.7362085906        1.7173952396
 H         -2.0676521598        3.4008498206        2.4846454898
 H         -4.3967512697        3.2205116805        0.5320487297
 H         -4.3381551498        2.7051209407        2.2287117097
 O         -3.0774809699        0.6207796606        1.9537957501
 C         -2.5944004700       -0.6628606394        1.7754501202
 O         -2.3798881401       -1.2797715793        2.8382279003
 H         -0.3888826598       -1.2038319399       -1.4078683495
 C          0.2345003201       -1.6888913099       -0.6710739794
 C         -0.3546988500       -2.4717487298        0.3128603206
 C          0.4670122699       -3.0840452497        1.2508836307
 C          1.8399560199       -2.9063042498        1.2086909408
 C          2.4180553900       -2.0981176299        0.2448436408
 C          1.6025569901       -1.4862036400       -0.6969519694
 N          2.1739547702       -0.5837514301       -1.6364004094
 S          2.2896603703        0.9635912199       -0.9643780896
 O          1.1714558702        1.2466682801       -0.0915281297
 O          2.4785822004        1.8679450898       -2.0775967697
 C          3.7925326502        0.8421147099       -0.0216166695
 C          3.7324917501        0.7588124301        1.3551026905
 C          4.9127674100        0.6159812101        2.0683780506
 C          6.1235328601        0.5572658400        1.3950451107
 C          6.1663143702        0.6436396298        0.0111743907
 C          4.9903365503        0.7861404598       -0.7075465894
 H          4.9735962203        0.8602580097       -1.7821269994
 H          7.1099457002        0.5977769397       -0.5080962292
 H          7.0393744900        0.4430667900        1.9531684908
 H          4.8808469700        0.5472159402        3.1438942306
 H          2.7672610801        0.8029669902        1.8346873505
 H          1.6133785003       -0.5111742202       -2.4763078195
 H          3.4834953500       -1.9370087700        0.2166227108
 H          2.4647121498       -3.3880754198        1.9449129209
 H          0.0195935198       -3.6819100096        2.0314858708
 C         -1.8569379800       -2.5618379196        0.3874636005
 H         -2.1177629001       -3.0371361495        1.3456740505
 C         -2.4830447800       -3.3910995997       -0.7251095794
 C         -1.7106050600       -3.9315707799       -1.8881993493
 C         -2.1823654701       -4.8585729898       -0.8114090293
 H         -2.9898239201       -5.5411062297       -1.0281082192
 H         -1.4404926702       -5.2508366197       -0.1320999792
 H         -0.6549620799       -3.7171681700       -1.9479253993
 H         -2.2041077099       -3.9516831000       -2.8480338994
 H         -3.5056778300       -3.0922324497       -0.9287542695
 O         -2.5201041598       -0.7171290999       -1.8509593997
