  62
        -98.94395350
 C          1.7962841605        0.6462119890       -0.1838357897
 C          2.2715343001       -0.3273469212        0.7293465103
 C          3.5123902502       -1.0161880413        0.3542059606
 C          4.0808669606       -0.7419389612       -0.8342809592
 C          5.3681652707       -1.3355193712       -1.3265050089
 C          6.5688685407       -0.4652820914       -0.9294853383
 C          6.5853740202       -0.0723834617        0.5477461617
 H          7.4927553502        0.5107874482        0.7188259321
 H          5.7373471602        0.5853950084        0.7510311816
 C          6.5497157798       -1.2592413818        1.5206274015
 H          6.8370216599       -2.1738147418        1.0005177514
 H          7.2873373196       -1.0891404120        2.3077403618
 C          5.2019554295       -1.4717450718        2.2125196210
 H          4.8667597295       -0.5312524718        2.6569404811
 H          5.3475984392       -2.1853326420        3.0279441310
 C          4.0742921798       -2.0156018615        1.3260806306
 H          4.4166933498       -2.9112844515        0.8034455905
 H          3.2439475195       -2.2974008316        1.9803007603
 H          7.4837675907       -1.0080097815       -1.1740688481
 H          6.5460665109        0.4490003087       -1.5269427082
 H          5.4809584005       -2.3375319913       -0.9169051790
 H          5.3220949110       -1.4011520210       -2.4149187889
 O          3.5609480910        0.1497460090       -1.7138333992
 C          2.4121422610        0.8705646591       -1.4158147095
 O          2.0596002613        1.6558452693       -2.3142678894
 O          1.6824451498       -0.6069705614        1.8090217901
 C          0.5280383505        1.4020317190        0.1767535600
 C         -0.6040848893        0.8777649493       -0.6706618904
 C         -1.1257749089        1.5574312795       -1.7631144205
 C         -2.1606475487        1.0069497698       -2.5003672809
 C         -2.7056178389       -0.2166901102       -2.1558430613
 C         -2.1907333993       -0.9017925005       -1.0629592012
 C         -1.1460964295       -0.3568983107       -0.3341770108
 H         -0.7395350399       -0.8937628209        0.5135965392
 N         -2.7915513096       -2.1189784305       -0.6668446716
 S         -4.3842223897       -1.9330458904       -0.1601823221
 O         -4.6409268602       -3.0277609505        0.7486457276
 O         -5.2410774494       -1.8552129901       -1.3157793224
 C         -4.3736051599       -0.3704054005        0.7012326981
 C         -3.7608577002       -0.3133955008        1.9372766384
 C         -3.6374972203        0.9132986891        2.5688006486
 C         -4.1183762400        2.0577742292        1.9511841586
 C         -4.7353851696        1.9832191395        0.7122091584
 C         -4.8631387495        0.7586788796        0.0767142282
 H         -5.3313240892        0.6571581198       -0.8883409520
 H         -5.1083347894        2.8752644396        0.2357153385
 H         -4.0114343101        3.0135357491        2.4401049888
 H         -3.1578963606        0.9731227089        3.5328785588
 H         -3.3978067205       -1.2238146209        2.3876317283
 H         -2.2651114299       -2.5964909406        0.0518766984
 H         -3.5270955988       -0.6487400100       -2.7044312816
 H         -2.5522669084        1.5421950300       -3.3518056109
 H         -0.7106288387        2.5105214196       -2.0447869102
 H          0.3168242101        1.1223354889        1.2182821199
 C          0.6947531807        2.9041400890        0.1048177203
 C         -0.3471491494        3.7740071490        0.7410816302
 C          1.0146331404        3.6633887488        1.3560280706
 H          1.6829794605        4.5086063087        1.2873875009
 H          1.1192519900        3.0991862386        2.2712623605
 H         -0.6169802792        4.6976053291        0.2529713102
 H         -1.1696463096        3.2774459690        1.2337583298
 H          1.1536889810        3.2439364491       -0.8151275895
