  62
        -98.94502417
 C          0.6787681190        1.6353211007       -1.0992102493
 C          1.9511835184        1.8911001417       -0.5284886884
 C          2.9638203796        0.8440239528       -0.6911170181
 C          2.6472099011       -0.2889969373       -1.3422214887
 C          3.5558692024       -1.4664542664       -1.5699316185
 C          3.6223259126       -2.4278500867       -0.3751717687
 C          4.4396444814       -1.9261036262        0.8158394820
 H          4.6139490818       -2.7844024262        1.4681004718
 H          5.4128952912       -1.5752135151        0.4697322227
 C          3.7497036898       -0.8245508671        1.6328711819
 H          2.6778934199       -0.8245895781        1.4175514112
 H          3.8525085193       -1.0469878674        2.6981961019
 C          4.3108092285        0.5806030035        1.4115241126
 H          5.3375933082        0.6266522844        1.7834271333
 H          3.7082571975        1.2817595727        1.9948445425
 C          4.3020480890        1.0500510439       -0.0484487772
 H          4.5139967479        2.1224242441       -0.0618202768
 H          5.0774849398        0.5329026749       -0.6138049869
 H          2.6049336926       -2.6444010478       -0.0381892894
 H          4.0658444737       -3.3620701961       -0.7285686587
 H          3.1563073434       -2.0081734965       -2.4301252189
 H          4.5598596622       -1.1179018553       -1.8144633377
 O          1.4279990716       -0.4891733284       -1.9014347195
 C          0.4036153306        0.4442968506       -1.7727345498
 O         -0.6589508887        0.0872460097       -2.3122572906
 O          2.2283702170        2.9571975118        0.0866931721
 C         -0.4039045222        2.6659521995       -0.8259766196
 C         -1.0399142127        2.3455089285        0.5042571999
 C         -1.2422681942        3.3171526880        1.4765416800
 C         -1.7605428946        2.9730633071        2.7135353996
 C         -2.0528452335        1.6548659867        3.0157305890
 C         -1.8537653620        0.6766933672        2.0478459989
 C         -1.3866773615        1.0336561081        0.7937610393
 H         -1.2519922603        0.2691198884        0.0459533591
 N         -2.1122134808       -0.6780630631        2.3003646983
 S         -1.1150527292       -1.8343728219        1.6032847186
 O         -1.2630202086       -2.9931811123        2.4626879481
 O          0.2367948404       -1.3523944605        1.4390973895
 C         -1.8583165679       -2.2085641022        0.0318970980
 C         -1.0488763268       -2.6773385211       -0.9818747717
 C         -1.6226389057       -3.0233751013       -2.1939100721
 C         -2.9906873557       -2.8961162726       -2.3687849229
 C         -3.7913922068       -2.4267139837       -1.3391141233
 C         -3.2240013879       -2.0822201735       -0.1234609028
 H         -3.8155114088       -1.7070732843        0.6953631569
 H         -4.8551848768       -2.3229998447       -1.4816054539
 H         -3.4336308349       -3.1585456027       -3.3166689633
 H         -0.9966147349       -3.3768486904       -2.9973481618
 H          0.0152208232       -2.7409805901       -0.8150618110
 H         -2.3454451712       -0.9061167436        3.2557953581
 H         -2.4210923239        1.3818123161        3.9928325287
 H         -1.9138784359        3.7362674067        3.4613696197
 H         -0.9681333851        4.3409428283        1.2685266805
 H          0.1286836268        3.6242107100       -0.7148563890
 C         -1.4125471616        2.8277353789       -1.9516522402
 C         -2.8135069012        2.3073870575       -1.8772720012
 C         -2.5606459027        3.7812628477       -1.7967622306
 H         -2.8330608927        4.4017296477       -2.6369121806
 H         -2.6856435737        4.2568216973       -0.8357465406
 H         -3.2407686202        1.8966301573       -2.7786976116
 H         -3.1155370712        1.7894897369       -0.9805382516
 H         -0.9377034010        2.7890666096       -2.9263356199
