  62
        -98.93904336
 C         -2.5411233219       -1.1364185910        0.6376375482
 C         -3.4183194880       -1.0029975583       -0.4671621788
 C         -4.5077011242       -0.0254133863       -0.3023062212
 C         -4.6014539777        0.6837071626        0.8360755756
 C         -5.6229292556        1.7501236777        1.1037897261
 C         -5.1076474111        3.1328707633        0.6807788210
 C         -4.5184690432        3.1677559676       -0.7294775776
 H         -4.2172379378        4.1982966601       -0.9300890910
 H         -3.6109335231        2.5595879185       -0.7514365496
 C         -5.4765508099        2.6907222908       -1.8300049937
 H         -6.5029657565        2.7120001992       -1.4619846883
 H         -5.4186572922        3.3867375985       -2.6694651205
 C         -5.1647223024        1.2989037428       -2.3828078497
 H         -5.7554086527        1.1541087226       -3.2912405645
 H         -4.1105258917        1.2455894189       -2.6657041172
 C         -5.4721865382        0.1243630552       -1.4455114250
 H         -6.4965050467        0.2061048397       -1.0766273738
 H         -5.3884870018       -0.7963100503       -2.0303036823
 H         -4.3304841826        3.4428918362        1.3835016856
 H         -5.9322501324        3.8446786480        0.7506496153
 H         -6.5385182717        1.5120438295        0.5658529753
 H         -5.8338398426        1.7628937121        2.1745071129
 O         -3.7316776367        0.5392106593        1.8694783882
 C         -2.6853967619       -0.3621253314        1.7919290123
 O         -1.9607177661       -0.3940095154        2.8085448446
 H          0.9948028089       -1.6625366497        1.8783087614
 C          0.9925725977       -1.2777333653        0.8671996422
 C         -0.1458599337       -1.4195079263        0.0889026283
 C         -0.1488162881       -0.8829336277       -1.1956116762
 C          0.9728919675       -0.2413090269       -1.6868337841
 C          2.1129470054       -0.1137091525       -0.9112886420
 C          2.1171319294       -0.6222343776        0.3800038764
 N          3.2660425446       -0.4969093877        1.1762398650
 S          4.0855512487        0.9673291828        1.2095141117
 O          4.7875473704        0.9724504533        2.4741492300
 O          3.2006493029        2.0808990722        0.9584908864
 C          5.2722729197        0.8130491888       -0.1098186743
 C          5.3463958955        1.7851971618       -1.0879309934
 C          6.2832380862        1.6473801595       -2.1005185424
 C          7.1255360789        0.5463326128       -2.1161965186
 C          7.0408298955       -0.4194939081       -1.1243354872
 C          6.1075455103       -0.2870213479       -0.1088090578
 H          6.0127667408       -1.0127081023        0.6814856468
 H          7.6978031106       -1.2741431595       -1.1397556774
 H          7.8523836168        0.4405304484       -2.9060064757
 H          6.3510848988        2.3978914950       -2.8716532690
 H          4.6676152767        2.6219794984       -1.0382698049
 H          3.1615532761       -0.8731107646        2.1074726678
 H          2.9860713861        0.3914652969       -1.2902667649
 H          0.9612049125        0.1662804330       -2.6864486497
 H         -1.0405780564       -0.9738087415       -1.7973855523
 C         -1.3654450841       -2.1008496050        0.6536353391
 H         -1.1712008024       -2.2923766596        1.7210267720
 C         -1.6753696429       -3.4430949883        0.0049204190
 C         -0.9974330265       -3.9523515418       -1.2281597222
 C         -0.6748581873       -4.5572794979        0.1026136665
 H         -1.0267006948       -5.5534609160        0.3240019364
 H          0.2850865559       -4.3203682977        0.5372121748
 H         -1.5962778966       -4.5172577326       -1.9260290621
 H         -0.2508967889       -3.3323082222       -1.6980440791
 H         -2.7179763757       -3.7178477506        0.1242843640
 O         -3.3184770001       -1.6539843305       -1.5374216203
