  62
        -98.93915072
 C          1.8349532711        1.1411465647        0.1185134681
 C          3.2118130671        1.1920941183        0.4586683660
 C          4.0855399776        0.2397872658       -0.2347757088
 C          3.5583616213       -0.6219831323       -1.1229955291
 C          4.3206449661       -1.6312468867       -1.9380092081
 C          4.6045319692       -2.9471877089       -1.2006785189
 C          5.6670986521       -2.8626130145       -0.1041870486
 H          5.9219250207       -3.8870189222        0.1744864984
 H          6.5690451108       -2.4020468741       -0.5085059897
 C          5.2190300461       -2.1056617900        1.1539140257
 H          4.1298433410       -2.0221078718        1.1594567015
 H          5.5008540290       -2.6759015877        2.0418830792
 C          5.8229743045       -0.7092125358        1.3023339999
 H          5.4096141461       -0.2501234928        2.2039408883
 H          6.9045929789       -0.7891649441        1.4313818398
 C          5.5413560338        0.2296060439        0.1219198427
 H          6.1417489752       -0.0596351077       -0.7405297111
 H          5.8188079524        1.2444931417        0.4174930660
 H          3.6693694569       -3.3174712884       -0.7746297748
 H          4.9396579417       -3.6715257864       -1.9466254731
 H          5.2598944304       -1.1928632233       -2.2768700821
 H          3.7050101842       -1.8524909510       -2.8126726036
 O          2.2288462895       -0.6609825538       -1.3999331437
 C          1.3300858702        0.1991344235       -0.7787631466
 O          0.1457519835        0.0084864666       -1.1120314391
 O          3.6855461618        1.9976742107        1.3023839320
 C          0.9087128925        2.1284062497        0.8060243518
 C         -0.3549616075        1.4380881239        1.2504987620
 C         -0.2622550804        0.4103121659        2.1856846011
 C         -1.3838868624       -0.2836759398        2.5957703826
 C         -2.6282877436        0.0331073481        2.0789594601
 C         -2.7327832596        1.0589918730        1.1508813786
 C         -1.6065064179        1.7617298713        0.7487478573
 H         -1.7121169057        2.5338694034        0.0021786381
 N         -4.0159792642        1.3485290912        0.6090393182
 S         -4.3655424219        0.4593818350       -0.7883306195
 O         -3.5203676601        0.8809971476       -1.8852328759
 O         -5.7845978056        0.6391620363       -1.0138376394
 C         -4.0270757258       -1.2212591027       -0.3252832951
 C         -2.7452999903       -1.7158394743       -0.4670176945
 C         -2.4938281264       -3.0204172885       -0.0701582058
 C         -3.5146770686       -3.7974832458        0.4557438559
 C         -4.7956789713       -3.2827408403        0.5885022640
 C         -5.0568017988       -1.9799210310        0.1966210154
 H         -6.0346576799       -1.5339485746        0.2770833106
 H         -5.5871899407       -3.8902985129        0.9967267491
 H         -3.3088411951       -4.8108803010        0.7629744501
 H         -1.4957971926       -3.4166044286       -0.1713447324
 H         -1.9673355118       -1.0857417021       -0.8715161091
 H         -4.1090661521        2.3250923796        0.3571935636
 H         -3.5129980565       -0.5013615151        2.3843941688
 H         -1.2903050809       -1.0796192498        3.3184325783
 H          0.7126930839        0.1538068860        2.5778952051
 H          1.4624778744        2.4438636073        1.7062494110
 C          0.6479308136        3.3898134232       -0.0047203616
 C          1.6582046084        3.9072745445       -0.9830285400
 C          0.3587052861        3.3476366578       -1.4746357718
 H         -0.3771835659        4.0301537394       -1.8757453997
 H          0.3576047411        2.3826820137       -1.9584424342
 H          1.8143961881        4.9738791492       -1.0419763905
 H          2.5554824665        3.3256284205       -1.1348725282
 H          0.1153305631        4.1395148632        0.5734573045
