  62
        -98.94498288
 C          2.0713835462        1.3369816255        0.0212099930
 C          2.6675281213        0.6780103365        1.1225936206
 C          3.8339244265       -0.1565181668        0.8151254551
 C          4.2685274408       -0.2537098850       -0.4547630623
 C          5.4560871646       -1.0495788178       -0.9243239485
 C          5.1521118723       -2.5325537466       -1.1780522526
 C          4.9395325871       -3.3776276118        0.0786814095
 H          4.9508530505       -4.4239640869       -0.2329772275
 H          5.7786091300       -3.2317691388        0.7596629257
 C          3.6218723117       -3.0972712390        0.8149038194
 H          2.9398525027       -2.5632481700        0.1483776207
 H          3.1398621755       -4.0434330909        1.0722505217
 C          3.7779285761       -2.3000410606        2.1102152322
 H          4.3519499730       -2.8846750780        2.8324352333
 H          2.7832545771       -2.1304486028        2.5308793686
 C          4.4575302244       -0.9355837161        1.9338800810
 H          4.3215731526       -0.3634610978        2.8548957542
 H          5.5247362846       -1.0673959679        1.7581059298
 H          5.9977351219       -2.9488098495       -1.7303356155
 H          4.2699771380       -2.6039447779       -1.8188818972
 H          6.2667065608       -0.9617266330       -0.2004690155
 H          5.7790735412       -0.5992598188       -1.8653601994
 O          3.6662208159        0.3938894136       -1.4867823255
 C          2.5414131710        1.1821906209       -1.2832694969
 O          2.0712472168        1.6806499352       -2.3225171104
 O          2.2411785510        0.7781399000        2.3051246973
 C          0.8473424176        2.2028689117        0.2606274437
 C         -0.3420845173        1.6090070134       -0.4536135856
 C         -1.1739855035        2.3306151427       -1.2984412839
 C         -2.2352497148        1.7090781277       -1.9353231221
 C         -2.4972536165        0.3667362622       -1.7362540129
 C         -1.6854617795       -0.3591667270       -0.8724164131
 C         -0.6244235852        0.2651546364       -0.2358651758
 H          0.0100975914       -0.3032068559        0.4331339874
 N         -1.9515706408       -1.7188365893       -0.6452822299
 S         -3.5411369387       -2.2004518007       -0.4507284966
 O         -3.4759457447       -3.3898018879        0.3695226682
 O         -4.1618844284       -2.3622582900       -1.7420552095
 C         -4.3366512295       -0.8720186337        0.4362888645
 C         -3.8252960406       -0.5101139412        1.6669098614
 C         -4.4170393516        0.5349912450        2.3572421615
 C         -5.5051734047        1.1966927250        1.8086543782
 C         -6.0104218846        0.8176525733        0.5749325749
 C         -5.4209416660       -0.2255941082       -0.1210982130
 H         -5.7788690197       -0.5508010240       -1.0843801015
 H         -6.8578799034        1.3322150290        0.1516440989
 H         -5.9611319735        2.0118850497        2.3478693894
 H         -4.0247908055        0.8305479366        3.3171539508
 H         -2.9805597710       -1.0461007400        2.0696429968
 H         -1.3445993184       -2.1527366272        0.0337209129
 H         -3.3054446043       -0.1342571789       -2.2438021310
 H         -2.8648043191        2.2784997991       -2.6016480538
 H         -0.9848137119        3.3769832892       -1.4706675275
 H          0.6583404082        2.1430984407        1.3428649908
 C          1.1270789010        3.6445208197       -0.1046475423
 C          0.3765296247        4.7509051790        0.5725970726
 C          1.8219779218        4.5205860362        0.8928910341
 H          2.5520841184        5.2307111897        0.5346077287
 H          2.0731340624        4.0829702713        1.8481680057
 H          0.1142325434        5.6247116581       -0.0043023433
 H         -0.3564660815        4.4753051619        1.3153522752
 H          1.3944250526        3.7667368032       -1.1479997007
