  62
        -98.94349044
 C         -1.0674919883       -0.7369739436        0.9214055864
 C         -1.6266047836       -0.7253863937       -0.3811805003
 C         -2.2957299704        0.5216460496       -0.7768943334
 C         -2.2536324403        1.5945806970        0.0307174447
 C         -2.8531559814        2.9453658317       -0.2525280677
 C         -4.3470944599        3.0498966730        0.0846617054
 C         -5.2847753561        2.3085652739       -0.8690369035
 H         -6.2992175386        2.6450528152       -0.6461148813
 H         -5.0622413454        2.6018666741       -1.8954881359
 C         -5.2342352023        0.7792395612       -0.7467315503
 H         -6.2512156450        0.3814870540       -0.7248690699
 H         -4.7623174047        0.5049079653        0.1994755914
 C         -4.4976272217        0.0767248408       -1.8874488662
 H         -4.4910826352       -0.9969097809       -1.6825028394
 H         -5.0351121284        0.2364616780       -2.8247760725
 C         -3.0443379855        0.5325629347       -2.0746605376
 H         -2.5430889464       -0.1663755101       -2.7492926001
 H         -3.0133821858        1.5258453591       -2.5230422921
 H         -4.6104369918        4.1099794845        0.0673034945
 H         -4.5008480175        2.6854278021        1.1029823028
 H         -2.3096460990        3.6634942557        0.3657739766
 H         -2.6929479873        3.2018531024       -1.3005416088
 O         -1.6144478313        1.5773109522        1.2311813884
 C         -1.0229330566        0.4160525278        1.7074507815
 O         -0.4843450313        0.5442036406        2.8253512159
 H          1.5090050847       -0.4479060148        0.3628474324
 C          1.5497451127       -1.4437151232       -0.0532194576
 C          0.6610563465       -2.4035036731        0.4156002383
 C          0.7217614289       -3.6829987898       -0.1170030764
 C          1.6340839204       -3.9748400436       -1.1171955818
 C          2.4817790250       -3.0027971029       -1.6157001003
 C          2.4321248416       -1.7192567601       -1.0818641944
 N          3.2751265366       -0.6999537050       -1.5488691816
 S          2.7538621111        0.8903927896       -1.5436754191
 O          1.3396960067        1.0109534945       -1.8119075729
 O          3.6353258226        1.5510513516       -2.4848071904
 C          3.1361416015        1.4633598915        0.0977170667
 C          4.4167216618        1.2721513199        0.5780116978
 C          4.7243191632        1.7128935794        1.8548941101
 C          3.7520066954        2.3323725980        2.6260632862
 C          2.4725586465        2.5227865720        2.1276075779
 C          2.1612909288        2.0876377461        0.8494583608
 H          1.1719109661        2.2042120721        0.4323966691
 H          1.7077798481        2.9890132557        2.7280694787
 H          3.9888180217        2.6680680035        3.6233421282
 H          5.7177605204        1.5681542283        2.2477845523
 H          5.1424069856        0.7847894033       -0.0512766082
 H          3.8083276826       -0.9259607839       -2.3756341844
 H          3.1689001572       -3.2278406559       -2.4171255809
 H          1.6692967107       -4.9710101582       -1.5318821657
 H          0.0374510521       -4.4418135859        0.2253790351
 C         -0.3271838077       -1.9508167252        1.4621537607
 H          0.2487588495       -1.5671797966        2.3209586090
 C         -1.2148492334       -3.0616412673        1.9996489550
 C         -2.5888075539       -2.7623973181        2.5194648294
 C         -2.4201553807       -3.5633532400        1.2652145858
 H         -2.6365395629       -4.6212274198        1.3029893771
 H         -2.6564525446       -3.1024074220        0.3199557002
 H         -2.9428876832       -1.7450891282        2.4320008176
 H         -2.9216108151       -3.2656974934        3.4148389307
 H         -0.6437907795       -3.7992687559        2.5552517491
 O         -1.5857085010       -1.6971763538       -1.1786254798
