  62
        -98.94625943
 C          2.3916926715        0.5129743927       -0.0107930758
 C          1.3972148719        0.7174259825        0.9732171386
 C          0.7184289580        2.0187582522        0.9498333811
 C          1.0670707954        2.9217021732        0.0156296802
 C          0.3738855267        4.2322078058       -0.2246503388
 C         -0.9328495543        3.9834494830       -1.0068184679
 C         -2.2072850490        4.3273755683       -0.2349133276
 H         -3.0459396381        3.9158327115       -0.8012000006
 H         -2.3252286814        5.4132151010       -0.2074278141
 C         -2.2753883277        3.8082439411        1.2046631701
 H         -3.3186309797        3.8790370261        1.5195328440
 H         -1.7053899443        4.4697491799        1.8592453115
 C         -1.7927307217        2.3674537164        1.4170617915
 H         -1.8618721337        1.7990638155        0.4884274556
 H         -2.4583139876        1.8847346343        2.1362424265
 C         -0.3593909873        2.2521792141        1.9713961811
 H         -0.3101979563        1.3865346083        2.6380518600
 H         -0.1199044426        3.1404760341        2.5624109795
 H         -0.9622950036        2.9322998962       -1.3053655664
 H         -0.9227300747        4.5686210038       -1.9283218049
 H          1.0502499971        4.8604947029       -0.8049531387
 H          0.1667057604        4.7227918586        0.7238950931
 O          2.0537254316        2.7039910340       -0.8926629487
 C          2.7167080946        1.4888195565       -0.9496956206
 O          3.5635945636        1.4027818911       -1.8640558531
 O          1.0796950171       -0.1577504647        1.8228053558
 C          3.0539023607       -0.8484328080       -0.1280821861
 C          1.9824153614       -1.9022483483       -0.2845013453
 C          2.0151757605       -3.1344723843        0.3560423046
 C          0.9747647636       -4.0344329367        0.1980092754
 C         -0.1269955309       -3.7176857829       -0.5757001593
 C         -0.1625335213       -2.4922929457       -1.2313139244
 C          0.9023641741       -1.6154310567       -1.1099509565
 H          0.8630102739       -0.6701989403       -1.6317191415
 N         -1.2665557485       -2.1080326787       -2.0202755123
 S         -2.1126094340       -0.7321256504       -1.5713084414
 O         -3.1882163602       -0.6280076362       -2.5344266844
 O         -1.2216034577        0.3963591840       -1.4923074219
 C         -2.8001678458       -1.1250136164        0.0277704121
 C         -4.1396573182       -1.4568756938        0.1026094704
 C         -4.6769277245       -1.8145426378        1.3281536976
 C         -3.8662490425       -1.8436109683        2.4531209873
 C         -2.5234872335       -1.5133776306        2.3591673960
 C         -1.9784833877       -1.1503118766        1.1366770192
 H         -0.9370299720       -0.8826044829        1.0515136124
 H         -1.8845568538       -1.5327402696        3.2276084649
 H         -4.2819837491       -2.1239016001        3.4081459780
 H         -5.7217837074       -2.0699736041        1.4015664498
 H         -4.7298048001       -1.4176358346       -0.7987488683
 H         -1.9257853940       -2.8558922699       -2.1883232657
 H         -0.9522141709       -4.4070628541       -0.6727088708
 H          1.0129371357       -4.9874160668        0.7031830319
 H          2.8517348651       -3.3867159336        0.9870242249
 H          3.6537130181       -0.8203928826       -1.0498909134
 C          3.9741100064       -1.0984129104        1.0489264545
 C          5.1983431366       -1.9474172771        0.8868738757
 C          5.3311949487       -0.4639501746        1.0506345044
 H          5.7192626710       -0.0777065718        1.9810835495
 H          5.6002526980        0.1273373573        0.1871237730
 H          5.5003714031       -2.5796203006        1.7082253018
 H          5.3916773285       -2.3665679186       -0.0890707946
 H          3.4397027399       -1.1402219129        1.9909484962
