  62
        -98.93523183
 C          2.3012338228        0.8540978539        0.0094839875
 C          2.3696179414       -0.1941956883        0.9529433699
 C          2.4784603041       -1.5636858539        0.4191577089
 C          2.4896991637       -1.7429430912       -0.9140041308
 C          2.5775657071       -3.0337092824       -1.6876486060
 C          1.6327203605       -4.1555252566       -1.2281174425
 C          2.3628458011       -5.3332865328       -0.5811889688
 H          1.7328179191       -6.2217081163       -0.6623781549
 H          3.2766792854       -5.5272514898       -1.1465037962
 C          2.7108786459       -5.1480047439        0.8945202723
 H          1.7958166384       -5.1974234729        1.4889315873
 H          3.3398128417       -5.9897820446        1.1937510670
 C          3.4378893871       -3.8466989905        1.2413969551
 H          3.9806463947       -4.0088245579        2.1751337599
 H          4.1785481926       -3.6046994496        0.4806494123
 C          2.4973612855       -2.6522439620        1.4578774138
 H          2.7647866353       -2.1391144725        2.3875484823
 H          1.4695380616       -3.0033593866        1.5998787829
 H          0.8829661022       -3.7484653145       -0.5495249487
 H          1.1015463458       -4.5269245932       -2.1060083093
 H          3.6113497186       -3.3862182217       -1.6689036635
 H          2.3563120835       -2.7604513109       -2.7215846004
 O          2.4383116791       -0.6983683440       -1.7894416386
 C          2.3091431105        0.6109074241       -1.3625607830
 O          2.2214718161        1.4464276798       -2.2828987772
 O          2.3385031597        0.0047817534        2.2001767496
 C          2.0927840334        2.2753279439        0.4950846897
 C          0.7563077598        2.7915692272        0.0156578808
 C          0.5448235520        4.1056859336       -0.3814023034
 C         -0.7112934754        4.5173522203       -0.7937362148
 C         -1.7767045662        3.6371811783       -0.8179303593
 C         -1.5743474564        2.3172069374       -0.4263319899
 C         -0.3199476681        1.9135229860       -0.0025504356
 H         -0.1775636499        0.8898040210        0.3123599555
 N         -2.6208546526        1.3832885922       -0.4907129810
 S         -2.5655005198       -0.0225175485        0.4325551621
 O         -2.3300379413        0.2974039464        1.8237878218
 O         -1.6500767983       -0.9539008294       -0.1789014371
 C         -4.2410330721       -0.5943266682        0.2192247527
 C         -5.1989443355       -0.2363190827        1.1493857761
 C         -6.5060536383       -0.6577562013        0.9627918894
 C         -6.8322040024       -1.4244527455       -0.1458739528
 C         -5.8599286643       -1.7778664812       -1.0697426561
 C         -4.5509063867       -1.3599590419       -0.8886556597
 H         -3.7594008112       -1.6161467263       -1.5737974943
 H         -6.1157846714       -2.3770019845       -1.9286886975
 H         -7.8498747103       -1.7514603431       -0.2891529418
 H         -7.2628924408       -0.3879805359        1.6814975582
 H         -4.8959718952        0.3505090726        2.0016198406
 H         -3.5394961571        1.8031792460       -0.5035375321
 H         -2.7525293187        3.9597720013       -1.1467223885
 H         -0.8620767122        5.5411368175       -1.1008583883
 H          1.3638042617        4.8061433320       -0.3711950555
 H          2.0526667986        2.2065639246        1.5936184265
 C          3.2570955174        3.1607997470        0.1027121999
 C          3.6696803063        4.3047888196        0.9789088064
 C          4.5257660113        3.0781612160        0.8959793706
 H          5.4670547601        3.1366988725        0.3707480222
 H          4.5371832350        2.4026647721        1.7391311909
 H          4.0278520700        5.2092485758        0.5108021995
 H          3.1079044022        4.4674231205        1.8864447393
 H          3.3441661647        3.2767424798       -0.9716208871
