  62
        -98.93210746
 C          2.5161396704        1.1201878753        0.4530742109
 C          3.3613332483        0.7815116857       -0.6302866595
 C          4.5641019950       -0.0122095263       -0.3015596759
 C          4.7862428060       -0.3956708012        0.9683713884
 C          5.9282916755       -1.1677554024        1.5960257273
 C          6.9293411411       -1.9268611148        0.7291065656
 C          6.3506800197       -3.1357726120       -0.0055432792
 H          7.1212360309       -3.5327672040       -0.6700167083
 H          6.1156612981       -3.9089470131        0.7303286368
 C          5.0837732555       -2.8711491024       -0.8152250929
 H          4.7775499802       -3.8151322007       -1.2741867770
 H          4.2776714360       -2.5636333548       -0.1458626838
 C          5.2248261298       -1.8371566350       -1.9303580341
 H          6.0507211433       -2.1156254465       -2.5878454386
 H          4.3047464750       -1.8619699620       -2.5203016985
 C          5.4364855253       -0.3860712781       -1.4656594208
 H          6.4820360657       -0.1911913574       -1.2396809971
 H          5.1495421623        0.2756402596       -2.2881637905
 H          7.7090521414       -2.2926921661        1.4028156843
 H          7.4114150485       -1.2499554379        0.0299508466
 H          6.4783737979       -0.4400131686        2.2030030088
 H          5.4634688073       -1.8651429589        2.3002708037
 O          3.9308567711       -0.0572965913        1.9788238324
 C          2.7952560494        0.6948092540        1.7530246891
 O          2.1217925681        0.9243108824        2.7787889053
 H         -1.1069562229        1.8048370634        1.5855912262
 C         -1.0790353071        1.1501074753        0.7243324779
 C          0.0718119666        1.0908218300       -0.0477550785
 C          0.0981999479        0.2297472909       -1.1404994360
 C         -1.0066076688       -0.5426656102       -1.4494115638
 C         -2.1533750299       -0.4791374848       -0.6767883002
 C         -2.1881419573        0.3712398582        0.4196088239
 N         -3.3458867665        0.4272685079        1.2152502015
 S         -4.8105129283        0.7315462665        0.4496359664
 O         -4.6193495057        1.5032548154       -0.7563277050
 O         -5.6523684905        1.3228199849        1.4663930231
 C         -5.4333736501       -0.8870424494        0.0491287726
 C         -5.7386531084       -1.2016833997       -1.2605278809
 C         -6.2332909662       -2.4643478158       -1.5482771599
 C         -6.4136732359       -3.3840866331       -0.5266121006
 C         -6.1045373616       -3.0512800734        0.7840229349
 C         -5.6106073414       -1.7906033112        1.0785749590
 H         -5.3627349130       -1.4913562787        2.0833304477
 H         -6.2466868431       -3.7692029001        1.5756962158
 H         -6.7981304526       -4.3661009308       -0.7528656015
 H         -6.4750017970       -2.7247863682       -2.5662510693
 H         -5.5779704233       -0.4557513795       -2.0226051771
 H         -3.2467453376        1.0066738608        2.0365322610
 H         -3.0153950567       -1.0810754572       -0.9140025913
 H         -0.9745200062       -1.2039116455       -2.3021009295
 H          0.9907234754        0.1803857784       -1.7455125066
 C          1.2557240327        1.9555395791        0.3005078773
 H          1.0725658063        2.3745554203        1.3030455555
 C          1.4334034780        3.1344263619       -0.6477166039
 C          0.7608281463        3.2507328051       -1.9788821313
 C          0.3113178302        4.1121404835       -0.8397440538
 H          0.5386348986        5.1672434698       -0.8602537336
 H         -0.6389746823        3.8746090239       -0.3835595764
 H          1.3233469153        3.7002159866       -2.7827686070
 H          0.1090903354        2.4532773244       -2.2984057884
 H          2.4321463109        3.5540675893       -0.5809282857
 O          3.1502774055        1.1199296523       -1.8220851598
