  62
        -98.94539620
 C          2.5921562989        0.0319859525       -0.4942006065
 C          2.4788827753        0.7472409266        0.7224169762
 C          2.0776645851        2.1529756408        0.6001095533
 C          1.8216942303        2.6722355985       -0.6140161472
 C          1.3723382679        4.0797094185       -0.8974245152
 C         -0.1384233474        4.2866837278       -0.7187012880
 C         -0.6213853434        4.3485861429        0.7313183814
 H         -0.0015967977        5.0490866974        1.2925913182
 H         -1.6355191405        4.7525987997        0.7106373348
 C         -0.6507241597        2.9907860521        1.4468165309
 H         -1.5854012672        2.8991487116        2.0060478079
 H         -0.6451624042        2.1875127410        0.7060113268
 C          0.4861579954        2.7675979408        2.4445745340
 H          0.4055516055        1.7477083763        2.8296248164
 H          0.3754003816        3.4575008449        3.2850154347
 C          1.8937604995        2.9411903620        1.8620635727
 H          2.6124000826        2.5623139692        2.5934457670
 H          2.0995920564        3.9962904920        1.6823591451
 H         -0.6638565935        3.4810423719       -1.2383384709
 H         -0.3983990881        5.2283541162       -1.2084397603
 H          1.9172102640        4.7775768509       -0.2606701927
 H          1.6291639994        4.2844627276       -1.9390425364
 O          1.9598109214        1.9561740922       -1.7625646129
 C          2.3148041974        0.6181440990       -1.7277415650
 O          2.3616318839        0.0679875346       -2.8497051635
 O          2.6978104044        0.2400044814        1.8537311265
 C          2.8798699277       -1.4581173966       -0.4647785555
 C          1.7773373453       -2.1508656652        0.3034677989
 C          1.9928172007       -3.1997334582        1.1870032969
 C          0.9272843808       -3.7688233659        1.8647858920
 C         -0.3622411102       -3.3039691356        1.6863670192
 C         -0.5880687821       -2.2522058154        0.8030324082
 C          0.4756369123       -1.7080270496        0.1056405562
 H          0.2902484276       -0.9078976347       -0.5956759532
 N         -1.8744592440       -1.7092083557        0.6485836987
 S         -2.2812449940       -0.8087290353       -0.7136755236
 O         -2.1124882507       -1.6075659107       -1.9094143168
 O         -1.5912396113        0.4552905136       -0.6816144211
 C         -4.0138104575       -0.5511218799       -0.3852711224
 C         -4.9515255029       -1.3940317625       -0.9508341369
 C         -6.2919870186       -1.1990261384       -0.6562732544
 C         -6.6690500222       -0.1722979270        0.1962211528
 C         -5.7163253963        0.6670688256        0.7547085783
 C         -4.3748194066        0.4780756616        0.4633938612
 H         -3.5979458733        1.1082569484        0.8647649916
 H         -6.0130644486        1.4662841241        1.4144995911
 H         -7.7125033150       -0.0230794677        0.4245971264
 H         -7.0352349419       -1.8471101143       -1.0918355320
 H         -4.6120330396       -2.1722561298       -1.6153664138
 H         -2.6150662303       -2.3424520310        0.9155614615
 H         -1.1863100149       -3.7382617373        2.2311017133
 H          1.1064524885       -4.5840277232        2.5493979275
 H          2.9930133164       -3.5668643307        1.3497673399
 H          2.8336000941       -1.7997858877       -1.5103627747
 C          4.2638401556       -1.7356704166        0.0830952671
 C          5.0365785967       -2.9320569982       -0.3826272422
 C          5.4465053056       -1.5586912607       -0.8194157166
 H          6.3491238804       -1.1317351949       -0.4091609532
 H          5.2487105404       -1.2641071923       -1.8402221304
 H          5.6636190435       -3.4494610645        0.3277206188
 H          4.5702693732       -3.5755931594       -1.1135512478
 H          4.3697381736       -1.4238042525        1.1154947230
