  62
        -98.94109809
 C          2.1998011011       -1.0121540596       -0.6644728079
 C          2.1845215683       -0.1142214457        0.4322342776
 C          3.0529495821        1.0653361105        0.3002195174
 C          3.7408709108        1.2736798344       -0.8358435132
 C          4.6530871914        2.4353697035       -1.1224203428
 C          6.0764014728        2.2601465288       -0.5749834302
 C          6.2104667390        2.3834209434        0.9434175165
 H          7.2767379322        2.4598260916        1.1650935589
 H          5.7419595741        3.3109768454        1.2739753559
 C          5.6268478965        1.2013226774        1.7299836524
 H          5.4901686393        0.3494998160        1.0597850005
 H          6.3356736216        0.8909143050        2.5007617705
 C          4.2999357055        1.4987509926        2.4287155874
 H          3.9599018794        0.5857785428        2.9242660832
 H          4.4519701220        2.2605591717        3.1964550018
 C          3.1837873697        1.9707187625        1.4874601881
 H          3.3697917938        2.9956655415        1.1664526517
 H          2.2360289632        1.9423075913        2.0316823956
 H          6.4570388876        1.2880189830       -0.8968302422
 H          6.6988417195        3.0300114040       -1.0367244917
 H          4.2169033600        3.3510591358       -0.7216984532
 H          4.7103760637        2.5246652330       -2.2095158453
 O          3.6610877969        0.4308900134       -1.9005291746
 C          2.9037224298       -0.7284899327       -1.8372135884
 O          2.9247612738       -1.4073930397       -2.8839496566
 O          1.4930834863       -0.2745603192        1.4698792085
 C          1.3787602677       -2.2908216704       -0.6599651744
 C         -0.0189668497       -1.9968863859       -0.1720416853
 C         -0.5990130381       -2.6023843244        0.9339954980
 C         -1.8829765470       -2.2623074124        1.3232375094
 C         -2.6151550788       -1.3227067187        0.6213801431
 C         -2.0425610921       -0.7071590244       -0.4841504986
 C         -0.7592129534       -1.0539276297       -0.8752705689
 H         -0.3094315381       -0.5688991629       -1.7343952569
 N         -2.7806759752        0.2425961069       -1.2137735579
 S         -3.5255070599        1.4916783410       -0.3731702235
 O         -3.6673003496        2.5585519914       -1.3412693940
 O         -2.8201118207        1.8188921184        0.8438793154
 C         -5.1379674956        0.8383271019        0.0070301036
 C         -5.9180959470        0.3810743943       -1.0370354345
 C         -7.1765481970       -0.1277661799       -0.7587731187
 C         -7.6322137733       -0.1678110810        0.5506903638
 C         -6.8386938888        0.2993267494        1.5871891566
 C         -5.5782821513        0.8089034611        1.3156954306
 H         -4.9231039073        1.1774142942        2.0891449275
 H         -7.1945804693        0.2681737228        2.6044457044
 H         -8.6117169577       -0.5652770080        0.7647704997
 H         -7.7966931209       -0.4912979041       -1.5622278790
 H         -5.5277206860        0.4335449218       -2.0396120002
 H         -2.2858183146        0.6076033773       -2.0149592184
 H         -3.6124104884       -1.0515801909        0.9270303044
 H         -2.3191415975       -2.7342079890        2.1904711294
 H         -0.0362156756       -3.3186056956        1.5094374944
 H          1.3065188570       -2.5839399488       -1.7207037934
 C          2.0420432017       -3.4530392221        0.0639248980
 C          3.5352561954       -3.5579740262        0.1431487872
 C          2.7363144808       -3.2896336825        1.3811765646
 H          2.6433943152       -4.0812216478        2.1103860307
 H          2.7651348370       -2.3015494422        1.8117444696
 H          3.9884570150       -4.5301800255        0.0204280734
 H          4.1163599254       -2.7501779857       -0.2782826919
 H          1.5054636995       -4.3837416791       -0.0922908992
