  62
        -98.93828783
 C         -2.2169851720       -0.9643205494        0.7490359060
 C         -2.0535495103       -0.1756610846       -0.4177374210
 C         -2.5443145993        1.2091566884       -0.3296685979
 C         -3.0632732695        1.6583146669        0.8266860833
 C         -3.6436122232        3.0261586699        1.0361172340
 C         -5.1481004334        3.0466400920        0.7311481884
 C         -5.5163626907        2.4081859358       -0.6080242136
 H         -5.2939673104        1.3395063315       -0.5670763710
 H         -6.5970547593        2.5073858415       -0.7292016756
 C         -4.8069839933        3.0247006349       -1.8217377841
 H         -4.4080230195        4.0053309780       -1.5599570734
 H         -5.5393600577        3.1739475612       -2.6177235605
 C         -3.6854933517        2.1630102459       -2.4052299569
 H         -4.0563842672        1.1507987182       -2.5853825831
 H         -3.4000997456        2.5834090551       -3.3731634762
 C         -2.4107558806        2.0653012508       -1.5573179783
 H         -1.6349838231        1.5925815728       -2.1680977142
 H         -2.0658507703        3.0669803764       -1.2907125760
 H         -5.6688692587        2.5048336381        1.5240003901
 H         -5.4882101310        4.0835513678        0.7477886194
 H         -3.1213747312        3.7358670774        0.3970709501
 H         -3.4884686256        3.3086588851        2.0788426999
 O         -3.1537363592        0.8893145577        1.9420786938
 C         -2.7250884599       -0.4284117415        1.9345195559
 O         -2.8351693404       -1.0069530742        3.0343854611
 O         -1.5276563170       -0.5926903971       -1.4818635101
 C         -1.7272179266       -2.4025115497        0.8114251394
 C         -0.3453817519       -2.4797854340        0.2084550597
 C          0.0090393503       -3.3296563377       -0.8299685522
 C          1.2907321683       -3.3007908310       -1.3531346648
 C          2.2420642248       -2.4283172846       -0.8580748742
 C          1.8978822002       -1.5774245954        0.1827664323
 C          0.6213214915       -1.6200358821        0.7161637743
 H          0.3542639952       -0.9447834263        1.5221443010
 N          2.8600340550       -0.6637396950        0.6802377676
 S          3.1957095699        0.6607701749       -0.3192720868
 O          2.4336496871        1.8044801333        0.1418842139
 O          3.0314768182        0.2788931674       -1.6974999940
 C          4.9247108872        0.9174636131        0.0307861204
 C          5.3163618838        1.9472474040        0.8629038143
 C          6.6645571750        2.1059379423        1.1445456029
 C          7.5918365739        1.2336356518        0.5958007194
 C          7.1826663100        0.2027742039       -0.2373305668
 C          5.8369444059        0.0405565297       -0.5231720798
 H          5.4741440781       -0.7399721936       -1.1711701136
 H          7.9064779965       -0.4732509597       -0.6632288828
 H          8.6399875644        1.3587624981        0.8172598991
 H          6.9850529131        2.9073976316        1.7905875029
 H          4.5610879234        2.6045781545        1.2626192278
 H          2.5817399754       -0.2892873749        1.5783996427
 H          3.2321158013       -2.3792734613       -1.2800152369
 H          1.5473661244       -3.9604611526       -2.1682034326
 H         -0.7267826948       -3.9929399361       -1.2542723543
 H         -1.6365422339       -2.6236004756        1.8882699479
 C         -2.6993076305       -3.4239208343        0.2412785920
 C         -4.1736463670       -3.1542850767        0.2179417900
 C         -3.4029898799       -3.2166028611       -1.0647722198
 H         -3.5506017224       -4.0716325154       -1.7082727642
 H         -3.2055113870       -2.2995212023       -1.5965013915
 H         -4.8464205747       -3.9642188359        0.4567103071
 H         -4.5110014982       -2.1893793547        0.5683881596
 H         -2.4034386153       -4.4406601608        0.4803038766
