  62
        -98.93823074
 C          2.4836089621        0.7394264075        0.0181725458
 C          2.8537727547       -0.4208252083        0.7461075146
 C          3.9694837242       -1.2063597534        0.2056462623
 C          4.5570285092       -0.8067276703       -0.9367040160
 C          5.7359673686       -1.4793129447       -1.5769641090
 C          7.0576396831       -0.8780440640       -1.0788331319
 C          7.1489114507       -0.7626839623        0.4427530645
 H          8.1337607223       -0.3542558529        0.6796162529
 H          6.4087999123       -0.0381798294        0.7903232012
 C          6.9507538715       -2.0872678508        1.1928907076
 H          7.0924022253       -2.9250438249        0.5092247630
 H          7.7157420028       -2.1685390713        1.9680061685
 C          5.5952831675       -2.2253316469        1.8886838273
 H          5.6441211615       -3.0868215581        2.5600740137
 H          5.4075244536       -1.3418608334        2.5042182823
 C          4.3887460084       -2.4338148764        0.9646612440
 H          4.5887136353       -3.2602897258        0.2796572054
 H          3.5334880413       -2.7049418779        1.5905111565
 H          7.8786627064       -1.4949533386       -1.4486651158
 H          7.1653181432        0.1221370933       -1.5048454029
 H          5.7031174968       -2.5444727086       -1.3561920801
 H          5.6673628325       -1.3385320534       -2.6569106516
 O          4.1642613873        0.2962766437       -1.6193893898
 C          3.1226203790        1.1007504605       -1.1689628400
 O          2.8890838629        2.0717997903       -1.9100610672
 O          2.2760697649       -0.7771725934        1.8089074301
 C          1.3399520335        1.5571366003        0.5915471192
 C          0.0195516728        1.0893141728        0.0344059527
 C         -0.1978500373        1.0058623384       -1.3375806695
 C         -1.4179173784        0.5768099566       -1.8269801956
 C         -2.4395064646        0.2152103728       -0.9655565589
 C         -2.2324985751        0.2908315994        0.4048762907
 C         -1.0077792992        0.7301219118        0.8938919816
 H         -0.8457818406        0.7761067511        1.9624977360
 N         -3.2523338406       -0.0979319036        1.2852890819
 S         -4.8265353637        0.4046542973        1.0056655283
 O         -4.8614079334        1.6814173823        0.3316631243
 O         -5.4730300149        0.3417257065        2.2978775757
 C         -5.5028478373       -0.8636986904       -0.0446238286
 C         -5.3880072795       -2.1783381857        0.3628962883
 C         -5.9231769655       -3.1754525610       -0.4366901079
 C         -6.5633751843       -2.8431936544       -1.6214461117
 C         -6.6728434151       -1.5184257265       -2.0151894866
 C         -6.1386480432       -0.5161228871       -1.2203320480
 H         -6.1952085303        0.5266573667       -1.4896412859
 H         -7.1708279597       -1.2622485314       -2.9365473563
 H         -6.9790784842       -3.6216201882       -2.2416020061
 H         -5.8391468113       -4.2069338220       -0.1343971820
 H         -4.8848291843       -2.3960279823        1.2902483546
 H         -3.0075472432       -0.0300093505        2.2621149361
 H         -3.3901457313       -0.1209871870       -1.3457867389
 H         -1.5751362498        0.5194299632       -2.8934659871
 H          0.5981318123        1.2844811421       -2.0117340186
 H          1.3425457423        1.3188546851        1.6674172410
 C          1.5440559593        3.0602591299        0.4659246535
 C          0.7255345125        3.9447747718       -0.4206806618
 C          0.5413708333        4.0028131164        1.0642496277
 H          0.8975318993        4.8689297271        1.6011173923
 H         -0.3641716676        3.5741211497        1.4682638967
 H          1.2323102019        4.7582782809       -0.9167053621
 H         -0.0576027806        3.4977152815       -1.0121447618
 H          2.5887013260        3.3339699647        0.5746881983
