  62
        -98.94091480
 C          2.3844198528        1.2650247408        0.1429372486
 C          2.2560204022       -0.1418984331        0.0188545707
 C          3.3601891555       -0.9344933009        0.5824789581
 C          4.3842744987       -0.3245061458        1.2035875745
 C          5.5708925503       -0.9992386475        1.8362237813
 C          6.6934940117       -1.3419028610        0.8471723277
 C          6.3946892656       -2.5051570939       -0.0995165047
 H          7.3363825497       -2.7761538824       -0.5809407201
 H          6.0649909325       -3.3682938457        0.4796291364
 C          5.3590861711       -2.1876888639       -1.1873006092
 H          5.2449401390       -1.1048882853       -1.2769151060
 H          5.7201716055       -2.5517281512       -2.1518059918
 C          3.9833085976       -2.8126904298       -0.9543559125
 H          4.0633184818       -3.9013678285       -0.9935615128
 H          3.3200415884       -2.4966987349       -1.7640096925
 C          3.3276469723       -2.4189364740        0.3759497493
 H          2.2793640402       -2.7281864718        0.3484984010
 H          3.8199905966       -2.9295163941        1.2034030705
 H          6.9298478113       -0.4489639234        0.2638382219
 H          7.5778440151       -1.5984082430        1.4348574697
 H          5.9660508639       -0.3013890929        2.5775670478
 H          5.2468493145       -1.9049459396        2.3496525111
 O          4.4459955702        1.0257083686        1.3470982039
 C          3.4632295223        1.8454464527        0.8186836957
 O          3.6567180008        3.0610189783        1.0195988822
 H         -0.5786253681        0.8398784707       -1.7545408683
 C         -0.8877416123        1.0920827539       -0.7521662185
 C         -0.0311063790        1.8061419183        0.0691930947
 C         -0.4329737870        2.0872927947        1.3712363644
 C         -1.6661371959        1.6679393972        1.8339570136
 C         -2.5175811086        0.9496792528        1.0125509742
 C         -2.1154363411        0.6452062595       -0.2806399147
 N         -2.9643249014       -0.0927885253       -1.1208986292
 S         -3.7971101593       -1.4089799550       -0.4999901414
 O         -3.0991166008       -2.0359857624        0.5978754671
 O         -4.0800198717       -2.2461581073       -1.6460025730
 C         -5.3245851555       -0.6943957176        0.0772854440
 C         -6.0488829513        0.0916374749       -0.7975278667
 C         -7.2430067979        0.6472348305       -0.3670987865
 C         -7.6927831279        0.4065988533        0.9226516377
 C         -6.9567503285       -0.3881676917        1.7877568417
 C         -5.7607991020       -0.9461841596        1.3631896550
 H         -5.1528075554       -1.5662543873        2.0030236867
 H         -7.3078269249       -0.5752373428        2.7899078263
 H         -8.6223097433        0.8406706038        1.2556204737
 H         -7.8182422097        1.2656579804       -1.0371777851
 H         -5.6667630982        0.2519043652       -1.7917205606
 H         -2.5473850605       -0.3219772563       -2.0116650301
 H         -3.4731875342        0.6050383601        1.3722944825
 H         -1.9670579527        1.8969964326        2.8450604541
 H          0.2403841875        2.6309138029        2.0200409429
 C          1.3400209968        2.2341017743       -0.3889816827
 H          1.5742366320        3.1945056323        0.0968546224
 C          1.4134246674        2.4795535605       -1.8893110263
 C          2.7427124795        2.6393662736       -2.5634910703
 C          1.8848755900        1.4505586666       -2.8702917277
 H          1.3988472249        1.4063495049       -3.8344567780
 H          2.1840017636        0.4862512414       -2.4912601199
 H          2.8527215341        3.4060129287       -3.3154157448
 H          3.6250575187        2.4907526147       -1.9576644229
 H          0.6198525764        3.1404824824       -2.2248569342
 O          1.2897699814       -0.7280249947       -0.5345096772
