  62
        -98.94967561
 C          1.5005758314        1.0612057476        0.0418457396
 C          2.5196451958        0.6371141521        0.9248981368
 C          3.0525489202       -0.7105004949        0.6905564346
 C          2.5297416730       -1.4622384097       -0.2958962222
 C          3.0043668204       -2.8367034873       -0.6676353344
 C          4.0952204227       -2.7785813927       -1.7463478118
 C          5.2192402128       -1.7907526342       -1.4337302218
 H          5.9449353119       -1.8556996353       -2.2471719820
 H          4.8139349536       -0.7764690855       -1.4429065974
 C          5.9281363439       -2.0395828152       -0.0951890947
 H          7.0062925973       -1.9607159094       -0.2494450440
 H          5.7231191712       -3.0536465550        0.2497881639
 C          5.5630825442       -1.0465197192        1.0096887818
 H          5.6776905076       -0.0255117708        0.6371602845
 H          6.2716741218       -1.1767287834        1.8319579625
 C          4.1526569971       -1.1884245610        1.5964217135
 H          3.9797580610       -2.2237526227        1.8986820391
 H          4.0985799152       -0.5587202452        2.4897139234
 H          4.5114196037       -3.7800674167       -1.8696547615
 H          3.6319541980       -2.4837061511       -2.6906373620
 H          3.3826880893       -3.3361010462        0.2224036300
 H          2.1507701927       -3.3997367801       -1.0495451343
 O          1.5331187823       -1.0313449597       -1.1082523760
 C          0.9895440622        0.2324616272       -0.9561266344
 O          0.0776869089        0.5022673341       -1.7623922547
 O          2.9594602876        1.3521228295        1.8676430790
 C          0.8925797700        2.4397466487        0.2188190414
 C         -0.6015745939        2.3390325335        0.4038655815
 C         -1.4966280798        3.2530748988       -0.1392470611
 C         -2.8592872745        3.1038852217        0.0535197317
 C         -3.3594703526        2.0316781294        0.7693230659
 C         -2.4717190262        1.1175736384        1.3237342770
 C         -1.1075405730        1.2917490769        1.1632524524
 H         -0.4345677475        0.5702143113        1.6037159093
 N         -2.9246453457       -0.0136132225        2.0384158387
 S         -2.6236769877       -1.4990096424        1.3170597797
 O         -3.2615311297       -2.4716518249        2.1794250034
 O         -1.2094159008       -1.6659175648        1.1047099806
 C         -3.5119493864       -1.4092980440       -0.2277109287
 C         -2.9449914457       -0.7571525214       -1.3041447735
 C         -3.6920025868       -0.6206948090       -2.4651633480
 C         -4.9795099844       -1.1297705154       -2.5294885738
 C         -5.5329079254       -1.7828566573       -1.4380463986
 C         -4.7959906155       -1.9194632489       -0.2734216375
 H         -5.1815183987       -2.4211021171        0.5996699051
 H         -6.5333939196       -2.1811868631       -1.4901106830
 H         -5.5532286381       -1.0175137904       -3.4359382181
 H         -3.2535937347       -0.1121760051       -3.3088520597
 H         -1.9385118200       -0.3722887545       -1.2388550379
 H         -3.9042066086        0.0331192683        2.2867112399
 H         -4.4231624825        1.8986183382        0.8978716503
 H         -3.5410351258        3.8220143608       -0.3755787355
 H         -1.1258161242        4.0818649253       -0.7199310653
 H          1.3307946038        2.8375045376        1.1470310158
 C          1.2920929982        3.3401808018       -0.9333139846
 C          1.4899758512        4.8105010846       -0.7190482345
 C          2.6733677565        3.9209352346       -0.9489766556
 H          3.1961546379        3.9853787216       -1.8914629454
 H          3.3138941731        3.6911787303       -0.1098178616
 H          1.2023510230        5.4895593442       -1.5075373561
 H          1.3354000463        5.1967173511        0.2770763608
 H          0.8775863913        3.0092565552       -1.8792397225
