  62
        -98.93930309
 C         -0.9569954184       -1.5459605151        0.5451653548
 C         -1.8703910697       -1.2875844383       -0.5037893532
 C         -3.0243960311       -0.4234866460       -0.1778206679
 C         -3.1361373231        0.0896046974        1.0587082172
 C         -4.2505225847        0.8998210093        1.6792321741
 C         -5.0640926248        1.8490591061        0.7979348372
 C         -4.2221067323        2.7087680853       -0.1542101704
 H         -4.5023769668        3.7562791910       -0.0289999605
 H         -3.1687931899        2.6172586552        0.1091645385
 C         -4.4066510427        2.3437647031       -1.6274401073
 H         -4.0564356532        3.1773914472       -2.2409051355
 H         -5.4721376690        2.2152208545       -1.8297609196
 C         -3.6568469792        1.0944480802       -2.0851227237
 H         -3.8911713082        0.9313570112       -3.1395852899
 H         -2.5781918128        1.2593610654       -2.0177529578
 C         -3.9877726140       -0.1903878881       -1.3072078873
 H         -5.0194514528       -0.1884410294       -0.9643107078
 H         -3.8543631444       -1.0390469046       -1.9834572307
 H         -5.6209806440        2.4962454435        1.4786639464
 H         -5.8017442154        1.2860192583        0.2293254483
 H         -4.9332734646        0.1915125809        2.1604569416
 H         -3.7769476378        1.4707674193        2.4833260519
 O         -2.1857307903       -0.1265026111        2.0180556178
 C         -1.0965549084       -0.9491133029        1.7979987943
 O         -0.3378705391       -1.0666732328        2.7824971449
 H          2.2068948887       -0.8552577493        0.9785466435
 C          2.1969270526       -1.0865395617       -0.0766514431
 C          1.2308243369       -1.9474376383       -0.5832118658
 C          1.2491126170       -2.2463332544       -1.9403362324
 C          2.2118093606       -1.6918466780       -2.7646399673
 C          3.1682402310       -0.8303214042       -2.2587060761
 C          3.1604242356       -0.5262203004       -0.9023629564
 N          4.1294864299        0.3318417466       -0.3565731262
 S          3.6780860451        1.4448598958        0.8046285561
 O          4.6975880413        2.4697564843        0.7324559956
 O          3.5249967316        0.8003626099        2.0832378824
 C          2.1233532483        2.0989379671        0.2277456032
 C          0.9555412348        1.8169119617        0.9039888937
 C         -0.2381435824        2.3187471056        0.4110192901
 C         -0.2474478516        3.0813636361       -0.7454406323
 C          0.9361544132        3.3561880811       -1.4137826867
 C          2.1332665499        2.8621128860       -0.9241207063
 H          3.0744108234        3.0696620513       -1.4068386744
 H          0.9262186050        3.9523015939       -2.3118674746
 H         -1.1815240692        3.4656705074       -1.1252078276
 H         -1.1530591139        2.0999009301        0.9390069697
 H          0.9870077739        1.2125207444        1.7976741170
 H          4.7585752181        0.7382754391       -1.0337841582
 H          3.9201991830       -0.4010819503       -2.9029127019
 H          2.2149718723       -1.9313662714       -3.8169812869
 H          0.4971901321       -2.8976570647       -2.3523567064
 C          0.2046109384       -2.5118853383        0.3690704659
 H          0.6782499781       -2.5842132731        1.3581094045
 C         -0.2877104895       -3.8888996677       -0.0311237024
 C          0.6190912491       -5.0690225669        0.1378129585
 C         -0.5693163598       -4.9017260643        1.0355420357
 H         -1.4116709438       -5.5650212406        0.9072646768
 H         -0.3990805860       -4.6080472190        2.0615498440
 H          0.5949711948       -5.8504680552       -0.6059965158
 H          1.5983327134       -4.8882636652        0.5553698900
 H         -0.9520849317       -3.8772846223       -0.8855676407
 O         -1.7652677111       -1.7796265906       -1.6555216305
