  62
        -98.94597053
 C         -1.5746923407       -1.5707432512       -0.2942623081
 C         -1.4291778389       -0.2044690353       -0.6373087456
 C         -2.6792511180        0.5620738399       -0.7452984824
 C         -3.8541522422       -0.0571354600       -0.5310357124
 C         -5.1928327918        0.6213571783       -0.5402640170
 C         -5.5703085187        1.1177821748        0.8628557161
 C         -4.4621740088        1.9084825535        1.5589343030
 H         -4.8519792364        2.2273414441        2.5281713822
 H         -3.6185002131        1.2428013739        1.7555011830
 C         -3.9685677232        3.1341870959        0.7776065592
 H         -3.8844941299        3.9770491780        1.4668311312
 H         -4.7028196995        3.4085794487        0.0192427849
 C         -2.5995997579        2.9583100633        0.1174386093
 H         -2.2586421134        3.9406157525       -0.2189098451
 H         -1.8789104505        2.5938046173        0.8536010944
 C         -2.5619084716        2.0188609474       -1.0938531637
 H         -3.3332047519        2.3081384159       -1.8103453634
 H         -1.5835769561        2.1300742288       -1.5697118609
 H         -5.8130947647        0.2512760349        1.4825099493
 H         -6.4654959636        1.7369924580        0.7806402810
 H         -5.1669879826        1.4562159678       -1.2377739908
 H         -5.9423592468       -0.0974756799       -0.8754947255
 O         -3.9530486219       -1.3764427464       -0.2228816458
 C         -2.8197017147       -2.1608676571       -0.0806527864
 O         -3.0490392899       -3.3464530739        0.2347978068
 H          2.2339531101       -1.3974065345       -0.2704358767
 C          1.7945573221       -1.3300261626        0.7097207762
 C          0.5250050192       -1.8261472720        0.9542651837
 C          0.0041053718       -1.7274525481        2.2428888907
 C          0.7348950931       -1.1420362635        3.2577311876
 C          1.9958816751       -0.6290283407        3.0057812858
 C          2.5247130496       -0.7251413971        1.7246581670
 N          3.8052773963       -0.2294879901        1.4462129599
 S          4.1863347455        0.4240613692       -0.0400425293
 O          4.3241243652       -0.6200418909       -1.0249312856
 O          5.3869448465        1.1932846257        0.2204137602
 C          2.8745114998        1.5432182574       -0.4947767333
 C          2.3721848345        2.4116164886        0.4525807195
 C          1.4093407417        3.3312354617        0.0731524020
 C          0.9761075885        3.3754111202       -1.2419752233
 C          1.4888828988        2.4958916961       -2.1804148506
 C          2.4454909115        1.5682689098       -1.8043900573
 H          2.8609062013        0.8573373979       -2.5010884837
 H          1.1402963661        2.5215973835       -3.2008896870
 H          0.2285202087        4.0960160536       -1.5355755029
 H          0.9967111501        4.0087707750        0.8038449741
 H          2.7292284043        2.3627224163        1.4687693904
 H          4.2496324125        0.2705356879        2.2016042499
 H          2.5668772196       -0.1631434179        3.7944594841
 H          0.3186077943       -1.0753498595        4.2516780767
 H         -0.9878509052       -2.1155882911        2.4330107742
 C         -0.3379177877       -2.4359376690       -0.1228410686
 H         -0.6927070292       -3.4148221314        0.2296771522
 C          0.3748213804       -2.6210913218       -1.4449935422
 C          1.3052065461       -3.7798968609       -1.6347477812
 C         -0.0180909814       -3.7572243617       -2.3381594405
 H         -0.0335026036       -3.5930598982       -3.4052115804
 H         -0.7961961013       -4.4197811636       -1.9874148221
 H          2.2038227977       -3.6291891251       -2.2140692421
 H          1.4275959972       -4.4618024727       -0.8066336545
 H          0.6315325818       -1.6812826473       -1.9203547108
 O         -0.3188646929        0.3485573049       -0.8406080887
