  62
        -98.93970109
 C         -2.6445173718       -1.3146967135        0.3237102367
 C         -2.8740341976       -0.5098797807       -0.8193126902
 C         -3.8824492690        0.5520393522       -0.6649405113
 C         -4.5183878311        0.7021293757        0.5102317891
 C         -5.5161857524        1.7796790705        0.8184951836
 C         -4.8299911724        3.0167132412        1.4148315933
 C         -3.6151807705        3.4932415968        0.6184571510
 H         -3.2325927033        4.3883855147        1.1134266938
 H         -2.8307956025        2.7347789240        0.6760697555
 C         -3.9069454209        3.8095482158       -0.8551340592
 H         -3.4239019363        4.7543619045       -1.1131590566
 H         -4.9793692359        3.9441271964       -1.0002014120
 C         -3.3907198145        2.7619820803       -1.8433889781
 H         -2.3359818428        2.5573865674       -1.6417796309
 H         -3.4542113481        3.1836415833       -2.8502210900
 C         -4.1469069156        1.4273049719       -1.8582003611
 H         -5.2170029746        1.6123028187       -1.9707549406
 H         -3.8027347360        0.8607933643       -2.7286704431
 H         -5.5643568372        3.8216756555        1.4781411777
 H         -4.5012682453        2.7752265864        2.4282083180
 H         -6.0467625591        2.0487289677       -0.0927540881
 H         -6.2319641345        1.3875908437        1.5428644090
 O         -4.2815646638       -0.0957741411        1.5818781724
 C         -3.3430921329       -1.1099294286        1.5182780034
 O         -3.2248718102       -1.7615421362        2.5747775714
 H         -0.2718053710       -0.5008108773       -0.9077722576
 C          0.3032648496       -0.9351021902       -0.1029556006
 C         -0.2523258472       -1.9605534578        0.6501310747
 C          0.5066196493       -2.5223646093        1.6695933841
 C          1.7878713707       -2.0656133569        1.9262111533
 C          2.3363321806       -1.0416964260        1.1749416298
 C          1.5870056914       -0.4748271258        0.1520543310
 N          2.1295863136        0.5730292677       -0.6130045180
 S          3.6472717256        0.3391721269       -1.2945711170
 O          3.6906818753        1.2201631622       -2.4406951446
 O          3.9012417311       -1.0602435890       -1.5481621927
 C          4.7691630573        0.9490528862       -0.0536183494
 C          5.7862729214        0.1403029723        0.4141079496
 C          6.6537707968        0.6414685333        1.3723828191
 C          6.4899959031        1.9354240541        1.8424984644
 C          5.4648992915        2.7358273611        1.3603206382
 C          4.5951998139        2.2414029830        0.4015988629
 H          3.7885188687        2.8310321967       -0.0010110013
 H          5.3405409884        3.7415914725        1.7282289091
 H          7.1653497905        2.3229611574        2.5888257182
 H          7.4517602995        0.0213406931        1.7479340815
 H          5.8714945233       -0.8611471095        0.0232464482
 H          1.4867438966        0.9346015647       -1.3033489050
 H          3.3333446888       -0.6821603693        1.3705903892
 H          2.3655359991       -2.5098986208        2.7222369559
 H          0.0816675916       -3.3151221333        2.2678362376
 C         -1.6430606221       -2.4589796275        0.3510169289
 H         -1.9565349578       -3.0900774927        1.1971327949
 C         -1.7054538693       -3.3241542045       -0.9025165919
 C         -0.5977605369       -3.4301418802       -1.9035824647
 C         -0.8861881703       -4.5780109621       -0.9862505998
 H         -1.3399206244       -5.4689268093       -1.3930321690
 H         -0.1825366232       -4.7635713512       -0.1885832656
 H          0.3055871228       -2.8621626619       -1.7414817874
 H         -0.8729564161       -3.5118284060       -2.9443439455
 H         -2.7128367006       -3.3782799875       -1.3030247585
 O         -2.2771448806       -0.6468304737       -1.9198328279
