  62
        -98.94185867
 C         -2.7707052552       -0.2815877839       -0.2531699472
 C         -2.0306013266        0.5452821756       -1.1330952644
 C         -2.0318903012        1.9823498523       -0.8228888740
 C         -2.7347018576        2.4370306769        0.2287404362
 C         -2.7866236398        3.8676646007        0.6783507197
 C         -1.7103338473        4.1665141045        1.7308471941
 C         -0.3082066361        3.6936630305        1.3449318556
 H          0.3702075522        4.0099280459        2.1409178526
 H         -0.2801083114        2.6007793948        1.3270852058
 C          0.2007641881        4.2292093585       -0.0003727061
 H          1.2386428939        4.5450139579        0.1240566749
 H         -0.3753551989        5.1077960378       -0.2945932793
 C          0.1800390637        3.1993080400       -1.1315920105
 H          0.6338432603        2.2705107020       -0.7740225059
 H          0.7937695023        3.5805752408       -1.9526189672
 C         -1.2056549888        2.8744232736       -1.7055988941
 H         -1.7388988356        3.8002178190       -1.9309910600
 H         -1.0621479855        2.3235279893       -2.6396226570
 H         -1.6944291664        5.2436989442        1.9083230788
 H         -1.9906562965        3.6723073345        2.6640586076
 H         -2.6559715038        4.5180110522       -0.1843824218
 H         -3.7690930454        4.0527658926        1.1163911819
 O         -3.4644547344        1.6212646158        1.0317385624
 C         -3.4724503729        0.2529577928        0.8325700963
 O         -4.1482631073       -0.3788521964        1.6700864029
 H         -0.2604571303       -1.4191919326       -1.1611308387
 C         -0.3082910904       -2.0218004243       -0.2663084979
 C         -1.5459260788       -2.3509766543        0.2675561502
 C         -1.5822610231       -3.1136749410        1.4286869105
 C         -0.4098216096       -3.5166891344        2.0458758486
 C          0.8216969021       -3.1491595324        1.5320865406
 C          0.8639851393       -2.3923635070        0.3700806925
 N          2.1166577969       -1.9324763013       -0.1239338139
 S          2.6184328239       -0.5951835320        0.7959176241
 O          2.9472831418       -1.0699741735        2.1164932311
 O          1.6301906774        0.4593563469        0.7278582917
 C          4.1030767433       -0.1117132614       -0.0637303006
 C          4.0525620167        0.9290580592       -0.9705185224
 C          5.2047932846        1.2729692479       -1.6602412822
 C          6.3789418199        0.5704731841       -1.4353849533
 C          6.4130658877       -0.4729158512       -0.5220116974
 C          5.2653261922       -0.8206918412        0.1719671722
 H          5.2448441655       -1.6174791955        0.8965683292
 H          7.3286674213       -1.0149493978       -0.3490853899
 H          7.2734728190        0.8399173659       -1.9743454830
 H          5.1802718016        2.0851598329       -2.3688338905
 H          3.1191533505        1.4514125653       -1.1102458918
 H          2.0083932435       -1.6054991322       -1.0779754481
 H          1.7410713605       -3.4114243070        2.0293645448
 H         -0.4561517633       -4.1047931323        2.9500794666
 H         -2.5386976577       -3.3639319801        1.8649945127
 C         -2.8063048674       -1.8016110618       -0.3573752944
 H         -3.6567336918       -2.1243431594        0.2578469366
 C         -3.0113212149       -2.3147357988       -1.7681687444
 C         -3.5419360674       -3.7020904961       -1.9630001279
 C         -4.4054501133       -2.5180721562       -2.2765635330
 H         -4.6142460930       -2.2875945486       -3.3103339989
 H         -5.2200981359       -2.2878699222       -1.6051641037
 H         -3.7734682302       -4.2774492771       -1.0793942515
 H         -3.1571015163       -4.2893007525       -2.7824294700
 H         -2.2754384526       -1.9513706644       -2.4725218387
 O         -1.3897773685        0.1322219235       -2.1381286200
