  62
        -98.94753118
 C         -1.3309230561       -1.6306170746       -0.5015742154
 C         -1.1919999510       -0.3202430080       -1.0239954505
 C         -2.3809035437        0.5415384279       -0.9213015189
 C         -3.5091347832        0.0605678030       -0.3712764276
 C         -4.7792561114        0.8377178034       -0.1817646187
 C         -4.8263129152        1.5093407775        1.1969058090
 C         -3.5620935316        2.2956349989        1.5444824438
 H         -3.7265646285        2.7646439987        2.5174034619
 H         -2.7238931826        1.6040350279        1.6635610250
 C         -3.1796868271        3.3699862380        0.5174520358
 H         -4.0392989310        3.6085941375       -0.1106951639
 H         -2.9046097918        4.2810922532        1.0533751336
 C         -1.9867385078        2.9970100569       -0.3652066215
 H         -1.6450423205        3.9052576079       -0.8709849748
 H         -1.1708381130        2.6394713307        0.2696813077
 C         -2.2592379892        1.9437682913       -1.4475609362
 H         -3.1488893771        2.2223777547       -2.0168958434
 H         -1.4020856865        1.9338472748       -2.1272135737
 H         -4.9671671737        0.7360169333        1.9556034960
 H         -5.6900664979        2.1763773528        1.2267525086
 H         -4.8593210829        1.5881359232       -0.9657855040
 H         -5.6189416023        0.1454758577       -0.2664308883
 O         -3.6106480597       -1.2040466914        0.1113841494
 C         -2.5276178012       -2.0641204285        0.0772416219
 O         -2.7558199396       -3.1865288043        0.5742229372
 H          1.2494209730       -0.4483107704        0.0240870925
 C          1.3896809158       -1.1998465450        0.7825091000
 C          0.7151383622       -2.4074343190        0.6789072093
 C          0.8970696232       -3.3625179006        1.6721136301
 C          1.7284834123       -3.1052031228        2.7481506331
 C          2.3790216020       -1.8895134149        2.8615927629
 C          2.2015905701       -0.9282677490        1.8726722286
 N          2.8519925093        0.3117179151        1.9375800036
 S          2.0952703392        1.6807910120        1.3358455614
 O          2.7921066227        2.7804848112        1.9759835055
 O          0.6688477906        1.6431845252        1.5635039516
 C          2.4862730647        1.7160146379       -0.4005782414
 C          1.7533209119        2.5608448576       -1.2078662760
 C          2.0613647215        2.6371436925       -2.5560411567
 C          3.0957710151        1.8730568627       -3.0712956733
 C          3.8281652962        1.0355420034       -2.2450944394
 C          3.5259649816        0.9555215374       -0.8951339307
 H          4.0701775676        0.3033623900       -0.2321839206
 H          4.6304330067        0.4383825429       -2.6485211420
 H          3.3284776232        1.9273534588       -4.1233547867
 H          1.4879159240        3.2857069361       -3.1991814363
 H          0.9480577842        3.1296099082       -0.7722484273
 H          3.3529931444        0.4993135036        2.7933017980
 H          3.0142794926       -1.6819881448        3.7093383491
 H          1.8615448049       -3.8539981902        3.5143757238
 H          0.3676023348       -4.3018389895        1.6061275040
 C         -0.2063583549       -2.6568156110       -0.4906412325
 H         -0.6931122677       -3.6290594523       -0.3337037293
 C          0.5745340351       -2.7140969563       -1.7894265177
 C          1.3446784266       -3.9564258601       -2.1173213036
 C          0.1050188582       -3.6168917966       -2.8883252493
 H          0.2046365464       -3.2792359932       -3.9087830903
 H         -0.7850211152       -4.2026399421       -2.7081135385
 H          2.2995863064       -3.8543125182       -2.6090427389
 H          1.2952730765       -4.7760607449       -1.4164388924
 H          1.0025966571       -1.7627798763       -2.0755177813
 O         -0.1481258245        0.1285741872       -1.5670669670
