  62
        -98.94356574
 C         -1.4468913882       -1.3600546678        0.6120776790
 C         -2.4320824009       -1.2077949082       -0.3935953696
 C         -3.4241055365       -0.1450853459       -0.1601671332
 C         -3.3149288945        0.6421670386        0.9247331223
 C         -4.2565979957        1.7591153572        1.2725207938
 C         -3.8099623046        3.1016909842        0.6773388582
 C         -3.4167591612        3.0219081946       -0.7972083339
 H         -3.1149862475        4.0238561353       -1.1102022954
 H         -2.5456234018        2.3715779941       -0.9006422403
 C         -4.5324560538        2.5118529111       -1.7195107397
 H         -5.4967554955        2.5927377497       -1.2162200249
 H         -4.5755626367        3.1492218567       -2.6052321657
 C         -4.3382139023        1.0764337352       -2.2109423659
 H         -3.3375376666        0.9646191802       -2.6355591701
 H         -5.0563152921        0.8928391115       -3.0146458835
 C         -4.5412978091       -0.0205388105       -1.1582799891
 H         -5.4960642513        0.1308678175       -0.6500944879
 H         -4.5811181602       -0.9792252884       -1.6835465855
 H         -4.6223221474        3.8203349877        0.8003001792
 H         -2.9532059794        3.4672565872        1.2480112869
 H         -5.2507891918        1.5060458093        0.9081767054
 H         -4.2931179461        1.8478810022        2.3597473488
 O         -2.3058801079        0.5193816177        1.8247577336
 C         -1.3609656878       -0.4827897716        1.6977377862
 O         -0.5057234509       -0.4983631318        2.6051965083
 H          2.0026929536       -1.5615753904        1.3844227023
 C          1.9292825052       -1.5682125981        0.3049042328
 C          0.7584427067       -2.0134685286       -0.2925183082
 C          0.6633924322       -1.9806530164       -1.6794873501
 C          1.7216368183       -1.5214011367       -2.4431720218
 C          2.8898707242       -1.0817290395       -1.8441994299
 C          2.9879721009       -1.1007218961       -0.4602103023
 N          4.1604842024       -0.6063381198        0.1577785103
 S          4.4036813282        1.0390298836       -0.0675134603
 O          4.8463971980        1.2665388904       -1.4190223568
 O          5.3119515355        1.4483279787        0.9791387762
 C          2.7859392881        1.7468334676        0.1799152600
 C          2.3333424728        1.9076140613        1.4741323232
 C          1.0409377748        2.3589468060        1.6818784641
 C          0.2259424782        2.6291399284        0.5942943437
 C          0.6931247476        2.4602413653       -0.6994351200
 C          1.9862578883        2.0119367565       -0.9129217761
 H          2.3874442036        1.8664910343       -1.9024768114
 H          0.0520245592        2.6701230618       -1.5410934420
 H         -0.7839576130        2.9690391338        0.7594395503
 H          0.6653206011        2.4778262090        2.6853426841
 H          2.9967983744        1.6871935798        2.2952957956
 H          4.1918965120       -0.8073906129        1.1481417308
 H          3.7172577858       -0.7042203781       -2.4231221178
 H          1.6351863846       -1.5011967955       -3.5189775578
 H         -0.2563307837       -2.2911319171       -2.1501739102
 C         -0.3907706927       -2.4555964219        0.5792940948
 H         -0.0144579708       -2.5311988917        1.6084627323
 C         -0.9343755597       -3.8102498708        0.1738831932
 C         -0.1440952512       -5.0354698834        0.5180378548
 C         -1.4283852887       -4.7456888305        1.2341718225
 H         -2.2907013314       -5.3586069865        1.0188718726
 H         -1.3763543978       -4.4133854368        2.2610974367
 H         -0.1217760683       -5.8495960321       -0.1898313550
 H          0.7801196363       -4.8995983132        1.0596776361
 H         -1.4697635533       -3.8035151097       -0.7653138271
 O         -2.5123557638       -1.9179977906       -1.4293365977
