  62
        -98.94468417
 C         -2.0769313488       -0.3495733587       -0.1766531477
 C         -3.0624960693       -0.8841274276        0.6903606927
 C         -4.2567497043       -0.0562502294        0.9001328841
 C         -4.3324611726        1.1491670635        0.3070283369
 C         -5.5077729650        2.0777167426        0.4002433278
 C         -6.5073446170        1.8277855013       -0.7378369403
 C         -6.8810775345        0.3566825661       -0.9197293639
 H         -7.6125396576        0.3050034267       -1.7291073602
 H         -5.9985893439       -0.1970428902       -1.2482280870
 C         -7.4596848798       -0.3112024413        0.3355082242
 H         -8.3358540585       -0.8964056637        0.0484359552
 H         -7.7963119759        0.4511938139        1.0389847313
 C         -6.4987332176       -1.2666107932        1.0454323652
 H         -7.0711790950       -1.8421451259        1.7777131154
 H         -6.0862494321       -1.9751442657        0.3227546181
 C         -5.3333750709       -0.6062610861        1.7929719816
 H         -5.7160181958        0.1700288488        2.4587509340
 H         -4.8516542773       -1.3755190406        2.4035424262
 H         -6.0667771042        2.1872708595       -1.6707065852
 H         -7.4077838000        2.4123673135       -0.5404212957
 H         -5.9961412460        1.9412458503        1.3632382607
 H         -5.1412973732        3.1034140570        0.3314182228
 O         -3.3529724364        1.6438089355       -0.4909175149
 C         -2.2061334264        0.9100469730       -0.7618608684
 O         -1.4062527928        1.4840711299       -1.5250739010
 H          1.1320737005        0.4034256086       -1.5595158890
 C          1.2458621958        0.2940104871       -0.4928876330
 C          0.3440699844       -0.4769255688        0.2235032070
 C          0.5048123456       -0.5821812697        1.6027925459
 C          1.5338420075        0.0774115482        2.2475595402
 C          2.4240980839        0.8587800385        1.5314665297
 C          2.2721331880        0.9696947865        0.1558734951
 N          3.1697842947        1.7622673672       -0.5762313509
 S          4.8011757127        1.6436686241       -0.2381847598
 O          5.1174917182        2.4271052668        0.9305434438
 O          5.4714007126        2.0337751914       -1.4588225293
 C          5.0815730511       -0.0856460171        0.1018897925
 C          5.5313412887       -0.4811646061        1.3449140948
 C          5.7142329019       -1.8323187222        1.5930756223
 C          5.4421583560       -2.7596465083        0.5996191122
 C          4.9939802604       -2.3462006351       -0.6458334725
 C          4.8100752599       -0.9969698719       -0.8995391359
 H          4.4686046964       -0.6422195598       -1.8586451803
 H          4.7843432914       -3.0694424854       -1.4175114166
 H          5.5810352593       -3.8112239327        0.7952556092
 H          6.0649262207       -2.1563902501        2.5596611244
 H          5.7300414108        0.2730377768        2.0888216670
 H          2.9859965402        1.7896643762       -1.5676450466
 H          3.2214377615        1.3964276032        2.0184324015
 H          1.6435139687       -0.0122771439        3.3175745402
 H         -0.1992670834       -1.1806379753        2.1638739574
 C         -0.8241630642       -1.1727853606       -0.4291672171
 H         -0.9922430446       -2.1207701976        0.0996439314
 C         -0.6247220584       -1.4654720510       -1.9010548377
 C          0.3232247794       -2.5516294126       -2.3108551440
 C         -1.1540710354       -2.7467446536       -2.4690587403
 H         -1.5742131788       -2.7336199691       -3.4637321919
 H         -1.6566264476       -3.4229136390       -1.7930943449
 H          0.8234481764       -3.0953172410       -1.5240973670
 H          0.9195967558       -2.4091742540       -3.1990627417
 H         -0.6924585277       -0.5840484262       -2.5272996750
 O         -2.9475772809       -2.0017639539        1.2604395771
