  62
        -98.94378962
 C         -1.6459308191       -1.4238852201        0.3976852567
 C         -1.7714526020       -0.1816741300        1.0752741842
 C         -3.0422678434        0.5294917393        0.9046038739
 C         -4.0235870061       -0.0297873785        0.1744057217
 C         -5.3976273453        0.5407696771       -0.0511689920
 C         -5.4758059925        1.5561166296       -1.1993252697
 C         -4.8287042694        2.9113431990       -0.9119739385
 H         -5.1430063823        3.5912744737       -1.7063102437
 H         -5.2179475880        3.3062792009        0.0269619599
 C         -3.2947311600        2.8798993813       -0.8654353429
 H         -2.9349633926        1.9622689742       -1.3366929312
 H         -2.8963216706        3.7141918866       -1.4467517562
 C         -2.6973768397        2.9798943771        0.5382120744
 H         -1.6122504901        2.8942454062        0.4487149071
 H         -2.9305641728        3.9568093133        0.9674482945
 C         -3.1769067107        1.8937604290        1.5099795937
 H         -4.2092520552        2.0796981060        1.8059813821
 H         -2.5466161832        1.9246082780        2.4021216483
 H         -5.0183728832        1.1145982258       -2.0877477164
 H         -6.5337626644        1.7201215572       -1.4171543926
 H         -5.7567253225        1.0024449120        0.8692175633
 H         -6.0477230580       -0.3029031228       -0.2930806815
 O         -3.8756060042       -1.2305728993       -0.4410176394
 C         -2.6813801347       -1.9383569265       -0.3831831638
 O         -2.6998278225       -2.9854583683       -1.0601438703
 O         -0.8637197102        0.3037055271        1.8006459323
 C         -0.3225279401       -2.1489124962        0.5671071071
 C          0.6323662578       -1.8396010192       -0.5614806075
 C          0.3024661218       -2.1085942431       -1.8856928058
 C          1.2017076710       -1.8296308787       -2.8983034078
 C          2.4388767329       -1.2786303474       -2.6136011808
 C          2.7810299153       -1.0120898801       -1.2926426406
 C          1.8752713470       -1.2926137251       -0.2781990107
 H          2.1539374682       -1.0887286915        0.7437057427
 N          4.0414567419       -0.4903223340       -0.9802531329
 S          4.3144624769        0.4802291278        0.3478901766
 O          5.6161838502        1.0576616627        0.0922462166
 O          4.1922281722       -0.2896854818        1.5599830436
 C          3.0756592294        1.7604696581        0.2861754410
 C          2.1149934863        1.8483014087        1.2711435985
 C          1.1734428051        2.8625925128        1.2018180301
 C          1.2056962261        3.7635678278        0.1495860071
 C          2.1787399299        3.6628654473       -0.8341298492
 C          3.1243793827        2.6538571036       -0.7670402870
 H          3.9058048976        2.5571838095       -1.5031783847
 H          2.2015744389        4.3681649154       -1.6493239944
 H          0.4702771337        4.5514472385        0.0975760128
 H          0.4148006296        2.9254897721        1.9652004193
 H          2.1056050095        1.1293037493        2.0738994208
 H          4.6104384108       -0.2294469307       -1.7710922527
 H          3.1394914561       -1.0647373638       -3.4060845347
 H          0.9357771974       -2.0423339277       -3.9228138121
 H         -0.6621526868       -2.5374761560       -2.1103623871
 H          0.1148397818       -1.7371053432        1.4874008420
 C         -0.4576192810       -3.6496079740        0.7378107138
 C          0.6575278365       -4.4049449714        1.3938273052
 C         -0.6461916617       -4.2194729524        2.1099034438
 H         -1.2982638376       -5.0718481495        2.2278032675
 H         -0.6779319011       -3.5282069761        2.9397013691
 H          0.9035395125       -5.3869894241        1.0200353731
 H          1.5116528247       -3.8401723751        1.7377207323
 H         -0.9818070034       -4.1311985554       -0.0770684571
