  62
        -98.93698562
 C          2.1605145579        0.9749776313        0.1192911443
 C          2.6374795094        0.0559786627        1.0800669013
 C          2.9466955554       -1.3018390407        0.6003925589
 C          2.7407328299       -1.6062723849       -0.6949085781
 C          2.8966902450       -2.9117727776       -1.4467247498
 C          3.6831447810       -4.0735780332       -0.8446898985
 C          5.1823624207       -3.8202166306       -0.6911243383
 H          5.6203962240       -4.6744125624       -0.1704382586
 H          5.6298496915       -3.7714894065       -1.6868770845
 C          5.5614086026       -2.5393462313        0.0479252726
 H          6.6526846073       -2.4874607878        0.0881950795
 H          5.2189548556       -1.6728053248       -0.5214037000
 C          5.0385471430       -2.4310029607        1.4789247231
 H          5.3356688985       -3.3144602083        2.0470116872
 H          5.5160182498       -1.5613256284        1.9379265961
 C          3.5167454536       -2.2486454791        1.6174395780
 H          3.3175550708       -1.8020094745        2.5960842978
 H          2.9976179137       -3.2038036190        1.5839666334
 H          3.2472407865       -4.3710521978        0.1044418593
 H          3.5586270079       -4.9181077954       -1.5279209320
 H          1.8754067772       -3.2521712390       -1.6540924803
 H          3.3337894473       -2.6463738239       -2.4146087903
 O          2.2605303907       -0.6873758304       -1.5841769263
 C          1.9516122338        0.6089075980       -1.2093113390
 O          1.5152854443        1.3215355526       -2.1332563332
 O          2.7810192875        0.3501494241        2.2985818382
 C          1.7758446814        2.3769529113        0.5581908134
 C          0.3053254443        2.5827007280        0.2879065060
 C         -0.2164192919        3.6876951938       -0.3706145227
 C         -1.5722965620        3.7691067280       -0.6416200631
 C         -2.4352348828        2.7576374351       -0.2620201265
 C         -1.9253277116        1.6597651126        0.4159537331
 C         -0.5720555527        1.5845378417        0.6945257882
 H         -0.1809537942        0.7153391305        1.2112326000
 N         -2.8015497468        0.6052112932        0.7873241814
 S         -3.1543902752       -0.4561586294       -0.4852558177
 O         -2.1765139875       -1.5265665547       -0.5077564642
 O         -3.3148285337        0.3051518465       -1.6966225311
 C         -4.7336688271       -1.0937554328        0.0412828490
 C         -4.8128869334       -2.3371337219        0.6366086134
 C         -6.0469945200       -2.7938377948        1.0730814286
 C         -7.1729334704       -2.0013006361        0.9115147375
 C         -7.0769365345       -0.7538535279        0.3124885272
 C         -5.8465288604       -0.2926308190       -0.1263460678
 H         -5.7237447396        0.6650820825       -0.6041251067
 H         -7.9548539877       -0.1408437895        0.1871555482
 H         -8.1314895586       -2.3587066803        1.2530848932
 H         -6.1242419244       -3.7639586452        1.5371227951
 H         -3.9123283810       -2.9217362325        0.7354460938
 H         -2.3992078861        0.0442264300        1.5283424869
 H         -3.4860888629        2.7960923036       -0.4960655398
 H         -1.9587612934        4.6289717996       -1.1673532618
 H          0.4419963450        4.4786394655       -0.6907417889
 H          1.9366318375        2.3997938794        1.6463789038
 C          2.6679882019        3.4125182235       -0.0910643238
 C          2.9210964802        4.7231261829        0.5907365990
 C          4.0086290010        3.6953476482        0.5156100480
 H          4.8450259153        3.8729166449       -0.1434910687
 H          4.2685891950        3.1560725190        1.4148045460
 H          3.0138465343        5.6103847536       -0.0169988518
 H          2.4462331038        4.8888153366        1.5457734923
 H          2.6000105623        3.3986657599       -1.1731610083
