  62
        -98.93836594
 C          1.7812500016        0.0382764949        0.1374141646
 C          2.8985345440        0.9102991240        0.1186976894
 C          4.1395019985        0.3397158564       -0.4300271325
 C          4.1516268310       -0.9123165100       -0.9187384503
 C          5.3301809530       -1.6133402023       -1.5382392604
 C          6.2737763140       -2.2671345655       -0.5195048267
 C          7.1327030827       -1.2941634936        0.2893017161
 H          7.8935469297       -1.8872908252        0.8006664099
 H          7.6508747020       -0.6171500440       -0.3905843101
 C          6.3557918482       -0.4818772191        1.3348942868
 H          6.9017135169       -0.4890354843        2.2810846610
 H          5.3892201519       -0.9561833151        1.5199638004
 C          6.1240295347        0.9811586985        0.9567461644
 H          5.5344274878        1.4505598503        1.7484384555
 H          7.0829771725        1.5009066841        0.8987259215
 C          5.3790982209        1.1806599083       -0.3695648253
 H          5.0741166309        2.2278400875       -0.4368361536
 H          6.0363445844        0.9526366923       -1.2083899208
 H          6.9402748022       -2.9326528535       -1.0729688222
 H          5.6807309653       -2.8821521035        0.1613013788
 H          4.9221924249       -2.3960166604       -2.1814070754
 H          5.8906219903       -0.9121050072       -2.1571778700
 O          3.0457375446       -1.7037826939       -0.9215377879
 C          1.8530611770       -1.2592858361       -0.3778148782
 O          0.9338264298       -2.1025110699       -0.4086286690
 H         -2.1577008654       -0.0868598533        0.1755466992
 C         -1.7741936187        0.6987775669       -0.4567250883
 C         -0.4459264042        1.0808654099       -0.3438744264
 C          0.0399298643        2.0731337125       -1.1888147798
 C         -0.7932347904        2.6674016576       -2.1190817528
 C         -2.1259501495        2.3047179835       -2.2072706410
 C         -2.6214769227        1.3159027569       -1.3660746496
 N         -3.9648149514        0.9210331105       -1.4232802463
 S         -4.7821289196        0.5763517426       -0.0020324516
 O         -6.1778287856        0.7738548649       -0.3284891731
 O         -4.2689611127        1.3516344048        1.1023845750
 C         -4.4904064755       -1.1583168081        0.2662148425
 C         -4.7846636802       -2.0366075651       -0.7576850591
 C         -4.5732192566       -3.3910759937       -0.5582810644
 C         -4.0768960362       -3.8420907089        0.6555423361
 C         -3.7907872790       -2.9478960069        1.6752874574
 C         -3.9993870668       -1.5915633700        1.4816112731
 H         -3.7829259639       -0.8619057719        2.2465556127
 H         -3.4021789936       -3.2999185215        2.6174954676
 H         -3.9099119648       -4.8966626288        0.8082008084
 H         -4.7929595894       -4.0907660240       -1.3485350209
 H         -5.1703321745       -1.6486555354       -1.6856855751
 H         -4.5357903720        1.4397547177       -2.0745792345
 H         -2.7782708375        2.7823953096       -2.9225748165
 H         -0.4046787430        3.4342094749       -2.7724078099
 H          1.0707736960        2.3809622078       -1.1019201103
 C          0.4248351107        0.4287695771        0.6986263922
 H         -0.0570408413       -0.5235511447        0.9733599705
 C          0.5169639356        1.2626310527        1.9699750053
 C          0.2156364940        2.7264544387        2.0261092499
 C         -0.7307149603        1.7469979910        2.6491802205
 H         -0.7832731270        1.6937472743        3.7265300526
 H         -1.6782022116        1.5829710167        2.1551317224
 H         -0.0885215539        3.2197134272        1.1164124846
 H          0.8318527107        3.3402150841        2.6652717966
 H          1.3153067349        0.9153986447        2.6187967356
 O          2.8858198315        2.0999299825        0.5235575020
