  62
        -98.94288191
 C         -2.6233088641       -1.2017560374        0.2323167335
 C         -2.7692289318       -0.3182196114       -0.8644526482
 C         -3.8364434077        0.6875274101       -0.7439448932
 C         -4.6069415682        0.7137652522        0.3578784303
 C         -5.6896786877        1.7166043219        0.6290656052
 C         -5.1446729854        2.9312175365        1.3934283158
 C         -3.8744952449        3.5251607993        0.7845167982
 H         -3.6003520265        4.3935202759        1.3873775236
 H         -3.0619760232        2.8006480634        0.8772076775
 C         -4.0120496525        3.9464601365       -0.6852267277
 H         -3.5537407597        4.9295081119       -0.8121837615
 H         -5.0664802504        4.0450635691       -0.9456589646
 C         -3.3307787698        3.0061141633       -1.6813384597
 H         -3.2989322616        3.5057759349       -2.6533735356
 H         -2.2976522597        2.8297470097       -1.3705860876
 C         -4.0111360887        1.6468277541       -1.8880468021
 H         -5.0701349537        1.7949962916       -2.1083915721
 H         -3.5441880194        1.1697301293       -2.7547272617
 H         -5.9244539024        3.6940872385        1.4295311734
 H         -4.9215349821        2.6240237157        2.4177050233
 H         -6.4602574278        1.2344168701        1.2328596908
 H         -6.1280842549        2.0345642608       -0.3148516529
 O         -4.4502880370       -0.1589035765        1.3844680859
 C         -3.4614241087       -1.1244038107        1.3510530999
 O         -3.4306485168       -1.8551019803        2.3610778142
 O         -2.0586654049       -0.3436268516       -1.9065420378
 C         -1.5814381001       -2.3093589431        0.2853344122
 C         -0.2098100969       -1.7790124194        0.6310426755
 C          0.4311049206       -2.1768066205        1.7985919560
 C          1.6985081495       -1.7104017991        2.1007193678
 C          2.3506746141       -0.8372762740        1.2486117301
 C          1.7182165516       -0.4317261898        0.0807106429
 C          0.4497301528       -0.9057460252       -0.2221717117
 H         -0.0401839897       -0.5833004656       -1.1292288209
 N          2.3629796329        0.4719890392       -0.7833823534
 S          3.9165455059        0.0919481764       -1.2957806496
 O          4.0914443943        0.8007992571       -2.5445749039
 O          4.1269342277       -1.3370232848       -1.3332037827
 C          4.9690710101        0.8289227258       -0.0625630083
 C          4.8377078086        2.1816486814        0.1833561526
 C          5.6588395073        2.7722763903        1.1304837339
 C          6.5946290692        2.0056806603        1.8091311309
 C          6.7165327968        0.6494558295        1.5483792271
 C          5.8971018556        0.0521907173        0.6030514864
 H          5.9521318663       -0.9994251485        0.3708071127
 H          7.4447544086        0.0553483129        2.0767405612
 H          7.2327338598        2.4683530002        2.5453969602
 H          5.5668083179        3.8266369923        1.3360482462
 H          4.1015134595        2.7421928113       -0.3682910842
 H          1.7891973506        0.7459995148       -1.5686351698
 H          3.3373934097       -0.4699589179        1.4793035590
 H          2.1837393854       -2.0289096056        3.0106898705
 H         -0.0762656642       -2.8497849537        2.4746387039
 H         -1.8985444302       -2.9686082777        1.1043029968
 C         -1.5294681243       -3.1293882284       -0.9904205959
 C         -0.9678951684       -4.5168852888       -0.9388456256
 C         -2.4385115658       -4.3098291165       -1.1414530549
 H         -2.8615892088       -4.5129939584       -2.1138046785
 H         -3.1032217267       -4.5363594917       -0.3202783479
 H         -0.3755541797       -4.8635108859       -1.7718797921
 H         -0.6357582887       -4.8867036089        0.0194567726
 H         -1.3318509612       -2.5393849709       -1.8756794374
