  62
        -98.94783879
 C          0.7658000102        1.2318508510        0.5934885026
 C          1.1755137956        0.6978366023       -0.6520403569
 C          2.1223138596       -0.4217877639       -0.5803331076
 C          2.4921818414       -0.9093221311        0.6172821517
 C          3.4839763641       -2.0152689795        0.8563875074
 C          4.9455252362       -1.5442486658        0.8461774349
 C          5.5084218944       -1.1959044635       -0.5325999611
 H          6.5907293445       -1.1040357341       -0.4214761130
 H          5.3211288325       -2.0213114528       -1.2198454590
 C          4.9633033859        0.1084700459       -1.1310833328
 H          5.7902919900        0.6958326713       -1.5367156621
 H          4.5034614810        0.7080015645       -0.3418736412
 C          3.9491655877       -0.0856952049       -2.2585873526
 H          3.6033027766        0.8997105727       -2.5804307518
 H          4.4357253490       -0.5665341682       -3.1100110426
 C          2.7195056867       -0.9144373648       -1.8634208746
 H          1.9635593285       -0.8015128679       -2.6437108484
 H          2.9874479960       -1.9663795177       -1.7804794096
 H          5.5502589876       -2.3507462335        1.2674443614
 H          5.0398966396       -0.6796911467        1.5074432418
 H          3.2642688018       -2.4248346265        1.8442640543
 H          3.3521994357       -2.7999923028        0.1127436603
 O          1.9881728253       -0.4356048710        1.7892854674
 C          1.1444470041        0.6630224578        1.8080434088
 O          0.8017272861        1.0295014777        2.9522425464
 H         -1.6260844692        0.2910269496        0.5690672323
 C         -2.0324808979        1.0607868865       -0.0714373136
 C         -1.3675382117        2.2758030086       -0.1742252080
 C         -1.9111592702        3.2657070404       -0.9832192661
 C         -3.0856414039        3.0338860996       -1.6775581789
 C         -3.7416476158        1.8215792301       -1.5772950920
 C         -3.2070798764        0.8251664128       -0.7667147203
 N         -3.8283964194       -0.4234517610       -0.6766026254
 S         -3.4894781357       -1.5345389880        0.5069648098
 O         -4.5019100913       -2.5546856912        0.3284722510
 O         -3.4349890178       -0.9357205969        1.8207659261
 C         -1.9098241962       -2.2231472602        0.0623122463
 C         -1.6145497235       -2.4278071787       -1.2703330078
 C         -0.4242094885       -3.0531662587       -1.6029727137
 C          0.4391209446       -3.4720512810       -0.6034765214
 C          0.1339568027       -3.2506854565        0.7299135587
 C         -1.0508772871       -2.6178491043        1.0681409949
 H         -1.3214309748       -2.4166056455        2.0934058503
 H          0.8089997924       -3.5686239870        1.5081292073
 H          1.3536408512       -3.9797385744       -0.8649924720
 H         -0.1762876571       -3.2165775114       -2.6392455355
 H         -2.3103531924       -2.0968091750       -2.0231963612
 H         -4.7368163878       -0.5195038504       -1.1015345707
 H         -4.6555981260        1.6404907249       -2.1215079217
 H         -3.4966940541        3.8096378825       -2.3055748405
 H         -1.4149470933        4.2180534589       -1.0725848263
 C         -0.1067260174        2.4718228084        0.6306115679
 H         -0.3972899818        2.6104994240        1.6832898204
 C          0.7062558979        3.6725369833        0.1863993155
 C          0.4447344796        5.0282377715        0.7682679467
 C          1.6840668970        4.2762459195        1.1475933819
 H          2.6351919608        4.6209401960        0.7702298981
 H          1.7384042916        3.8402160844        2.1350097679
 H         -0.3392195505        5.1137017718        1.5056761995
 H          0.5486210014        5.8932805283        0.1306287129
 H          1.0031158332        3.6088639163       -0.8544825085
 O          0.7885269809        1.1429488105       -1.7628446998
