  62
        -98.94184313
 C          0.8515891585        1.3172201918        0.4752335875
 C          1.2735117701        0.6796128148       -0.7133050562
 C          2.2168834965       -0.4415490615       -0.5513754372
 C          2.5267706865       -0.8583013596        0.6882999757
 C          3.5027098745       -1.9352347806        1.0775071653
 C          4.8854116480       -1.3292977767        1.3737506358
 C          5.7931793284       -1.1736124110        0.1540697647
 H          6.6763430617       -0.6172823254        0.4764492504
 H          6.1292330861       -2.1604609852       -0.1709666076
 C          5.1659787135       -0.4513487899       -1.0412969493
 H          4.6037739951        0.4165953415       -0.6918772441
 H          5.9775638982       -0.0783938314       -1.6690918579
 C          4.2582762646       -1.3572895502       -1.8869424731
 H          4.4154845661       -2.3940463632       -1.5907623201
 H          4.5549305605       -1.2866944606       -2.9352835621
 C          2.7607513154       -1.0216761343       -1.8277348379
 H          2.5240578223       -0.2744590746       -2.5914513762
 H          2.1820473935       -1.9144117325       -2.0804087093
 H          4.7305090299       -0.3555346802        1.8457917857
 H          5.3988430134       -1.9641286464        2.0988856253
 H          3.1198785269       -2.3882924604        1.9948076986
 H          3.5706087658       -2.6972728372        0.3067297583
 O          2.0021264547       -0.2860297601        1.8090142684
 C          1.1949841238        0.8340987677        1.7365871656
 O          0.8498628396        1.2966329949        2.8439001118
 H         -1.7221499375        0.6456847490        1.0403049803
 C         -2.0749429679        1.2045055842        0.1851381615
 C         -1.3104195577        2.2577701918       -0.3033230739
 C         -1.7883248241        2.9830992597       -1.3863862746
 C         -2.9977186902        2.6492327158       -1.9709199758
 C         -3.7547752811        1.5999075946       -1.4852972996
 C         -3.2914348301        0.8766031890       -0.3906990843
 N         -4.0628668913       -0.1609509110        0.1483289856
 S         -3.3995979880       -1.4372825189        0.9783769216
 O         -4.4722651818       -2.4089428276        1.0319042196
 O         -2.8824983927       -1.0058682079        2.2528850209
 C         -2.0923797397       -2.1005336866       -0.0369228937
 C         -0.8695483787       -2.3880932427        0.5318769531
 C          0.0958327684       -3.0203810202       -0.2352312932
 C         -0.1730524191       -3.3391515885       -1.5566710263
 C         -1.3985185929       -3.0227512556       -2.1219663690
 C         -2.3719923278       -2.4059553236       -1.3544491319
 H         -3.3430833846       -2.1724036147       -1.7590335167
 H         -1.6002851032       -3.2641851710       -3.1530333099
 H          0.5743264707       -3.8443587078       -2.1483582725
 H          1.0490533048       -3.2628217348        0.2055457252
 H         -0.6953208389       -2.1158965578        1.5619408544
 H         -4.8860107687       -0.4169119807       -0.3751227310
 H         -4.7001838398        1.3445203405       -1.9383986510
 H         -3.3555341451        3.2153652154       -2.8172982444
 H         -1.2135060511        3.8060880116       -1.7768830619
 C         -0.0113871200        2.5633920097        0.4004142365
 H         -0.2502506192        2.8284108271        1.4412130271
 C          0.7722057036        3.6989461680       -0.2250539330
 C          0.4381975868        5.1198063891        0.1125912431
 C          1.6972020774        4.5003280817        0.6387840708
 H          2.6426164694        4.8196206856        0.2263992662
 H          1.7439890802        4.2425340574        1.6873047907
 H          0.5223104098        5.8683736759       -0.6606023897
 H         -0.3701353019        5.2911322601        0.8073720586
 H          1.1010486224        3.4738662981       -1.2329277899
 O          0.9058294897        1.0428788268       -1.8605442514
