  62
        -98.94095967
 C         -1.7220348664        0.1268668528       -0.9236708013
 C         -2.9247815748        0.8604823464       -0.7779925479
 C         -4.1387264451        0.0644892614       -0.5351860937
 C         -4.0528373700       -1.2747472849       -0.4521569765
 C         -5.1987871501       -2.1940204992       -0.1461045647
 C         -5.3261546971       -2.4419538765        1.3635509849
 C         -5.3032856972       -1.1653762085        2.2042945638
 H         -5.4315754730       -1.4611288747        3.2478297466
 H         -4.3178471275       -0.7010691355        2.1211959442
 C         -6.3800335214       -0.1378619823        1.8285786145
 H         -7.1674469782       -0.6208444503        1.2487553055
 H         -6.8382617841        0.2403352635        2.7449164548
 C         -5.8565014709        1.0759729010        1.0587539581
 H         -5.0056548896        1.5084223000        1.5912625254
 H         -6.6466591565        1.8313342227        1.0367975299
 C         -5.4341004473        0.8135954414       -0.3922456066
 H         -6.2375076928        0.2977864723       -0.9219261444
 H         -5.2741766446        1.7839740029       -0.8711730756
 H         -6.2559137481       -2.9836738746        1.5467562096
 H         -4.4949582332       -3.0754012899        1.6816619582
 H         -6.1190447393       -1.7601078075       -0.5323358810
 H         -5.0183429568       -3.1463702796       -0.6474664646
 O         -2.8822198885       -1.9463348477       -0.5930929404
 C         -1.6993482253       -1.2691527020       -0.8272413457
 O         -0.7022868930       -2.0104518508       -0.9374933775
 H          2.0309193930        0.0833721184       -0.1972481771
 C          1.5451925159        0.8263739367        0.4166385554
 C          0.2798547592        1.2787368954        0.0732749785
 C         -0.3401099215        2.2199680153        0.8878468872
 C          0.2992321566        2.6910321955        2.0197939472
 C          1.5727844635        2.2572362237        2.3447138489
 C          2.2026746932        1.3209376662        1.5339606917
 N          3.4918912349        0.8574152396        1.8309855630
 S          4.5853411645        0.5861353182        0.5922392350
 O          5.8819304952        0.6859695455        1.2275058286
 O          4.3536646141        1.4714626767       -0.5245966727
 C          4.3087877901       -1.1051146614        0.1131966891
 C          4.0860049628       -1.4139117193       -1.2136879290
 C          3.8922787855       -2.7386409325       -1.5712076676
 C          3.9266584882       -3.7265122004       -0.5996542474
 C          4.1560233023       -3.4006346878        0.7285653759
 C          4.3505690898       -2.0780780938        1.0918602060
 H          4.5345410889       -1.7864784465        2.1124469736
 H          4.1813253494       -4.1732020913        1.4801634245
 H          3.7719986901       -4.7562337841       -0.8807432000
 H          3.7108990482       -2.9935850609       -2.6031357181
 H          4.0620177704       -0.6140218513       -1.9375543134
 H          3.9281286814        1.2933857442        2.6302625847
 H          2.0767444997        2.6398477681        3.2194792238
 H         -0.1929821337        3.4172468300        2.6492229672
 H         -1.3232900472        2.5776995530        0.6236958416
 C         -0.3705377646        0.7684679663       -1.1904942725
 H          0.2657297155       -0.0374760622       -1.5810869159
 C         -0.4137889797        1.8808360847       -2.2229094305
 C          0.8769446745        2.3594670030       -2.8146359560
 C         -0.0865375666        1.5731479980       -3.6512710315
 H         -0.6332361898        2.0871755816       -4.4276656365
 H          0.1667202813        0.5522039047       -3.8981229462
 H          1.7897948488        1.8829653743       -2.4868636337
 H          0.9887577582        3.4141667939       -3.0155073307
 H         -1.1826155736        2.6169676379       -2.0298555554
 O         -3.0110146873        2.1161393290       -0.8406803400
