  62
        -98.94014638
 C         -2.1405913058       -0.6242534322        0.2607246670
 C         -2.9410900419        0.2010569714        1.0905908392
 C         -3.8647595134        1.1131681828        0.4037614753
 C         -3.8535490155        1.1671884584       -0.9404635118
 C         -4.7857116978        1.9975550288       -1.7730130533
 C         -6.0516071651        1.2090564549       -2.1382187291
 C         -6.7169848172        0.5189410114       -0.9473076319
 H         -6.0514260100       -0.2602418996       -0.5685023804
 H         -7.6139563792        0.0200720903       -1.3204186093
 C         -7.0976206542        1.4620775353        0.2025857637
 H         -8.1073861010        1.2163022775        0.5378240379
 H         -7.1166721260        2.4925111150       -0.1541058946
 C         -6.1869183129        1.3679407308        1.4282177614
 H         -6.0930213338        0.3233606337        1.7363985989
 H         -6.6642665943        1.9087015858        2.2497335993
 C         -4.7774172172        1.9483147230        1.2568810051
 H         -4.3107389397        1.9870863945        2.2458039084
 H         -4.8433929442        2.9669272041        0.8688346483
 H         -5.7832528764        0.4441036215       -2.8705091113
 H         -6.7609740813        1.8937732308       -2.6064128389
 H         -4.2676888045        2.2816860615       -2.6904662720
 H         -5.0517715989        2.8983696949       -1.2232199467
 O         -3.0089156820        0.4268440745       -1.7007593606
 C         -2.1357151010       -0.4916790336       -1.1288779554
 O         -1.4283290243       -1.0945334078       -1.9554923241
 O         -2.8825101963        0.1770263434        2.3499784010
 C         -1.2117006060       -1.6129378796        0.9407125669
 C          0.1818806688       -1.5136576180        0.3723080004
 C          0.8833780188       -2.5923978447       -0.1480444673
 C          2.1706029207       -2.4257745463       -0.6293896317
 C          2.7851956879       -1.1881248422       -0.6020634000
 C          2.0930469879       -0.1012618426       -0.0836546215
 C          0.8079885025       -0.2725182248        0.4029081310
 H          0.2708380967        0.5772008714        0.8096396025
 N          2.7199899419        1.1648000372       -0.0542812999
 S          4.0384909873        1.2930749001        0.9867836989
 O          3.8807090745        0.4334127664        2.1386285536
 O          4.1759968495        2.7077110883        1.2575363820
 C          5.4186604078        0.7453720675        0.0062891691
 C          6.1021479433       -0.3998062341        0.3653884495
 C          7.1743836769       -0.8104800063       -0.4112283431
 C          7.5416650575       -0.0726187559       -1.5262847562
 C          6.8461442842        1.0768000134       -1.8715368634
 C          5.7738421089        1.4936409925       -1.0990097074
 H          5.2103496589        2.3829364035       -1.3274063179
 H          7.1353522607        1.6481371400       -2.7388582017
 H          8.3757181233       -0.3946331302       -2.1295908561
 H          7.7166159404       -1.7032924423       -0.1444305185
 H          5.7761764773       -0.9427377104        1.2379052285
 H          2.0746516078        1.9176070303        0.1412504370
 H          3.7826459590       -1.0529983379       -0.9871854946
 H          2.7002231030       -3.2728171402       -1.0377926472
 H          0.4164821144       -3.5622521207       -0.1946885535
 H         -1.1654580594       -1.2639440681        1.9870389466
 C         -1.7474460356       -3.0365793691        0.9877561401
 C         -3.2191143489       -3.3120357929        0.9178690522
 C         -2.3271963043       -3.7155101594       -0.2156452415
 H         -2.1256890175       -4.7673263723       -0.3567299790
 H         -2.3704287642       -3.1512808433       -1.1337296298
 H         -3.6275815740       -4.0820306553        1.5550775707
 H         -3.8801056072       -2.4694291582        0.7738001398
 H         -1.1781590285       -3.6593006008        1.6711392903
