  62
        -98.94355442
 C          1.8441184580        0.2950377757       -0.2728100193
 C          2.9780165645        0.5061098283       -1.0923652553
 C          4.2671742233        0.5692371944       -0.3949381296
 C          4.3069549915        0.4525540572        0.9451510160
 C          5.5412228799        0.5284163691        1.8027245597
 C          6.3125346162       -0.7942130190        1.9098858067
 C          7.0766029657       -1.2062429681        0.6509529471
 H          7.7044950260       -0.3780962243        0.3207266008
 H          7.7407352069       -2.0256273143        0.9331413823
 C          6.1834003606       -1.6717724429       -0.5074538429
 H          6.5892071165       -2.5920867699       -0.9334893621
 H          5.1868183189       -1.9073812997       -0.1272764951
 C          6.0507162552       -0.6643311889       -1.6495085543
 H          5.3674484422       -1.0790355336       -2.3950628713
 H          7.0225312015       -0.5207141358       -2.1271151440
 C          5.5097380725        0.7062837712       -1.2220929263
 H          5.2489615988        1.2681122722       -2.1225464999
 H          6.2736448302        1.2583220885       -0.6748402525
 H          5.6121691408       -1.5855583306        2.1863391349
 H          7.0311667890       -0.6863104600        2.7255895376
 H          6.2034912129        1.3071582363        1.4231962192
 H          5.2065590381        0.8134266922        2.8024798556
 O          3.1905045107        0.2691682519        1.6992285098
 C          1.9362882729        0.1695085823        1.1135225050
 O          1.0065334855       -0.0209165337        1.9192947154
 O          2.9143231831        0.6452062191       -2.3439332735
 C          0.4758123894        0.2036227885       -0.9206434159
 C         -0.4537852314        1.2562175155       -0.3691484175
 C          0.0243720061        2.5487357807       -0.1677112102
 C         -0.7987204270        3.5375633904        0.3333451470
 C         -2.1240983199        3.2658888331        0.6243570678
 C         -2.6173848838        1.9855397977        0.4106978273
 C         -1.7827122268        0.9892399792       -0.0785615228
 H         -2.1861054010        0.0029250670       -0.2360392439
 N         -3.9533855670        1.6753542066        0.7021375947
 S         -4.8269211146        0.6808216707       -0.3194653475
 O         -4.4160917304        0.8342871790       -1.6954000054
 O         -6.2115656670        0.9934264591       -0.0338817058
 C         -4.4897973467       -0.9737820645        0.2439602765
 C         -4.4158346466       -1.9918979209       -0.6858658546
 C         -4.2052830947       -3.2894874972       -0.2456663625
 C         -4.0728082220       -3.5446110553        1.1103730483
 C         -4.1510583023       -2.5108337316        2.0313202011
 C         -4.3663705294       -1.2122582643        1.5983030582
 H         -4.4290189342       -0.3865512899        2.2871923991
 H         -4.0437866932       -2.7123776787        3.0850247290
 H         -3.9059020076       -4.5543039554        1.4511837689
 H         -4.1441892606       -4.0944758783       -0.9609953273
 H         -4.5127766204       -1.7469104204       -1.7316658678
 H         -4.5089017867        2.4494514490        1.0357967151
 H         -2.7699968972        4.0380529520        1.0140568309
 H         -0.4086194795        4.5316972798        0.4927779656
 H          1.0571583731        2.7668168608       -0.4036330781
 H          0.6410405400        0.4249580837       -1.9864883656
 C         -0.0654296510       -1.2057368645       -0.7962657488
 C         -0.9669252571       -1.7711091665       -1.8513426124
 C          0.4449438707       -2.2585210606       -1.7324396894
 H          0.6174272227       -3.2522068654       -1.3475205853
 H          1.1596561806       -1.9496053984       -2.4813863860
 H         -1.7635823389       -2.4313625799       -1.5436082214
 H         -1.2205344349       -1.1353741728       -2.6865836586
 H         -0.2403790044       -1.4926031608        0.2348958023
