  62
        -98.93782416
 C         -1.6933367211       -1.3939156002        0.3730154593
 C         -1.3073802313       -0.3057222699       -0.4456630704
 C         -1.9941637915        0.9768687999       -0.2049302099
 C         -2.8881455615        1.0661671595        0.7933030602
 C         -3.7167393717        2.2564878492        1.1923030006
 C         -5.0767485417        2.2509020691        0.4731469907
 C         -5.0875083220        2.9383399696       -0.8913903291
 H         -6.0687865120        2.7601203895       -1.3369864291
 H         -4.9814144222        4.0158981795       -0.7503790588
 C         -4.0093306319        2.4629528200       -1.8678418294
 H         -3.9340466117        1.3748112800       -1.8280947997
 H         -4.3292244921        2.7296522103       -2.8767896493
 C         -2.6321607520        3.0889875602       -1.5997097693
 H         -2.7405320721        3.9099060800       -0.8914887090
 H         -2.2461899222        3.5264487906       -2.5228326592
 C         -1.5646310318        2.1087856103       -1.0978103596
 H         -1.0886833718        1.6230902206       -1.9559978298
 H         -0.7728227619        2.6607446303       -0.5775919795
 H         -5.3939676116        1.2104517691        0.3649039604
 H         -5.8096565018        2.7506850888        1.1097692008
 H         -3.8896165316        2.1629440588        2.2668736805
 H         -3.1747469519        3.1796752093        1.0092511308
 O         -3.2008562512        0.0040853792        1.5891992299
 C         -2.6019643210       -1.2292283807        1.4189867695
 O         -2.9497214108       -2.0888758910        2.2559876292
 H          0.4634478390       -1.3669018503        1.9496112192
 C          1.0687197191       -1.7525730299        1.1367492891
 C          0.4708204491       -2.5343460597        0.1546412989
 C          1.2616252591       -3.0106286393       -0.8821107213
 C          2.6057742091       -2.6845592890       -0.9481255813
 C          3.1816096090       -1.8595968492        0.0009683489
 C          2.4002711190       -1.3915596796        1.0486389791
 N          2.9718086589       -0.4635632998        1.9698018793
 S          2.5701433385        1.1186310403        1.5214380198
 O          3.2310001884        1.9747638501        2.4855511500
 O          1.1355912085        1.2957502200        1.4287982699
 C          3.3442930984        1.2671560309       -0.0694003302
 C          4.6755520683        1.6343977411       -0.1135318902
 C          5.3105057482        1.7013238216       -1.3428043502
 C          4.6072108182        1.3941463518       -2.4983755603
 C          3.2725714783        1.0247581416       -2.4342058603
 C          2.6278281784        0.9570068111       -1.2082606003
 H          1.5926171284        0.6605261009       -1.1276009403
 H          2.7240654583        0.7793435617       -3.3293412703
 H          5.1022602481        1.4411690622       -3.4556230703
 H          6.3485817582        1.9874871918       -1.3960702402
 H          5.1764731484        1.8628061710        0.8129174098
 H          2.6379288290       -0.6027426501        2.9153095593
 H          4.2170662389       -1.5665747090       -0.0600074011
 H          3.2051082091       -3.0555024886       -1.7649603915
 H          0.8167514592       -3.6092247891       -1.6599503115
 C         -1.0177909708       -2.7529305400        0.2634288189
 H         -1.2204406407       -3.2473584104        1.2285198588
 C         -1.5851585107       -3.6588681898       -0.8180109213
 C         -3.0108725608       -3.5247864700       -1.2611448712
 C         -1.8984542609       -3.1607087395       -2.1954803512
 H         -1.7018242408       -3.8141286092       -3.0327385914
 H         -1.7169871411       -2.1180382694       -2.4005972609
 H         -3.5966728109       -2.7289912202       -0.8235139009
 H         -3.5746349506       -4.4254259100       -1.4529357614
 H         -1.2026488905       -4.6717358198       -0.7385370017
 O         -0.4359469314       -0.3881302694       -1.3492861604
