  62
        -98.93640925
 C          2.4393643898        1.0531568530       -0.6721064677
 C          3.5874012555        0.8855135497        0.1469405603
 C          4.3580133826       -0.3456242423       -0.0527667501
 C          3.9687913409       -1.2282659532       -0.9900191953
 C          4.6606041720       -2.5187264363       -1.3360707449
 C          4.2886805284       -3.6928912204       -0.4201362768
 C          4.8738101873       -3.6282030752        0.9912164541
 H          5.9497026215       -3.4617101726        0.9303055587
 H          4.7213491816       -4.6088094439        1.4463752013
 C          4.2360869231       -2.5620429129        1.8931454254
 H          4.0189518884       -2.9953647536        2.8720545030
 H          3.2816204771       -2.2451742418        1.4660755266
 C          5.1055044005       -1.3267900393        2.1285736806
 H          6.0043375863       -1.6105959433        2.6804861282
 H          4.5400044781       -0.6226464558        2.7444052212
 C          5.5300005255       -0.5993105737        0.8462957391
 H          6.2933985187       -1.1742565016        0.3224009899
 H          5.9500988722        0.3701311441        1.1251291773
 H          4.6508243672       -4.6056762576       -0.8986875794
 H          3.1999125644       -3.7582341250       -0.3600500219
 H          5.7406893570       -2.3703092272       -1.3185914342
 H          4.3599882176       -2.7685997635       -2.3558512986
 O          2.8747732056       -1.0256088506       -1.7685080582
 C          2.0712590313        0.0989545717       -1.6209239268
 O          1.0906696032        0.1082737340       -2.3899618497
 O          3.9561796825        1.7365258908        0.9993155578
 C          1.6383858815        2.3268774458       -0.4634599233
 C          0.4772657778        2.0920620852        0.4686213193
 C          0.3066690238        2.8613123714        1.6128332546
 C         -0.7713133553        2.6415440796        2.4536727516
 C         -1.6976072124        1.6533294763        2.1730023895
 C         -1.5345014539        0.8777380116        1.0319003324
 C         -0.4543757446        1.1007969939        0.1905932860
 H         -0.3333661238        0.5019937020       -0.7006999145
 N         -2.4619642370       -0.1460382973        0.7334058361
 S         -4.0738338562        0.3515030021        0.5976488541
 O         -4.1825060758        1.4294940060       -0.3614367285
 O         -4.5742025114        0.6339488923        1.9191262314
 C         -4.8354728490       -1.1280470773       -0.0358527415
 C         -5.0618081736       -1.2460970355       -1.3935785641
 C         -5.6313281132       -2.4130539467       -1.8785777930
 C         -5.9580471625       -3.4372060379       -1.0026055582
 C         -5.7233255227       -3.3037889973        0.3579805689
 C         -5.1563157641       -2.1390305887        0.8497452609
 H         -4.9637748051       -1.9869943479        1.8987976478
 H         -5.9804220058       -4.1020625316        1.0353677435
 H         -6.4007776253       -4.3440790656       -1.3832215616
 H         -5.8166590069       -2.5182662439       -2.9354832875
 H         -4.7979676587       -0.4220186624       -2.0373862576
 H         -2.1975459534       -0.6239799839       -0.1195782798
 H         -2.5480630723        1.4821329071        2.8124204344
 H         -0.8926371670        3.2469868445        3.3392698539
 H          1.0295921483        3.6296077732        1.8458947951
 H          2.3367421435        3.0094114950        0.0459099531
 C          1.2277703918        2.9921799039       -1.7714085130
 C         -0.1905851599        3.1595200378       -2.2206712938
 C          0.5886271778        4.3493110520       -1.7519067099
 H          0.9050914472        5.0841623526       -2.4764438604
 H          0.3315909640        4.7606379453       -0.7870817726
 H         -0.3937898788        3.0529693353       -3.2756242527
 H         -0.9855168525        2.7904058378       -1.5906390174
 H          1.9535245739        2.8123586710       -2.5583736025
