  62
        -98.93697046
 C         -2.1269718440       -1.3274260011        0.0298245771
 C         -2.9268670570       -0.6396573112        0.9688050715
 C         -3.7188018771        0.4965323985        0.4615415809
 C         -3.6359740694        0.8174531250       -0.8423622429
 C         -4.3295755941        1.9302083399       -1.5873919282
 C         -5.8175205515        2.1512367723       -1.2740682489
 C         -6.0909318568        3.4388116790       -0.4946027952
 H         -5.4399297575        4.2247388084       -0.8833854324
 H         -7.1217624956        3.7477556247       -0.6812519465
 C         -5.9075018990        3.3341146784        1.0183955056
 H         -6.7203758662        2.7396235987        1.4408132524
 H         -5.9924759541        4.3417035578        1.4320745810
 C         -4.5793781928        2.7275780319        1.4755749730
 H         -3.7583880171        3.0988792538        0.8624697796
 H         -4.3915469791        3.0664748687        2.4967572683
 C         -4.5760025452        1.1913580876        1.4844390135
 H         -4.2018724850        0.8307411018        2.4478143909
 H         -5.5997203396        0.8157956545        1.4003876517
 H         -6.2151930688        1.2910200416       -0.7380347741
 H         -6.3502002393        2.2142970937       -2.2242552752
 H         -3.7728880407        2.8562159043       -1.4207848228
 H         -4.2052919934        1.6816260575       -2.6439098839
 O         -2.8302394016        0.1384497081       -1.7093324170
 C         -2.0548333714       -0.9355661627       -1.3062326164
 O         -1.3678749519       -1.4439461992       -2.2114597412
 H         -0.0226811877       -0.2806082776        1.2208994237
 C          0.6590474508       -0.9593613084        0.7219330189
 C          0.1807161781       -2.1842583252        0.2716280939
 C          1.0648514659       -3.0439386425       -0.3655144554
 C          2.3850189585       -2.6735995307       -0.5585004554
 C          2.8530082576       -1.4498680109       -0.1174075421
 C          1.9784787708       -0.5846870950        0.5275088440
 N          2.4463491268        0.6605338742        0.9899192692
 S          3.1952569857        1.6661727851       -0.1309600495
 O          3.0072548777        3.0065820994        0.3819395708
 O          2.7191402724        1.4179615263       -1.4722073381
 C          4.9166967190        1.2312003812        0.0019523200
 C          5.5243464426        1.3499384295        1.2367308804
 C          6.8639088207        1.0167553656        1.3575248435
 C          7.5693170138        0.5750530160        0.2478653044
 C          6.9455547026        0.4646420248       -0.9854626253
 C          5.6053495756        0.7958147680       -1.1131447790
 H          5.0760350910        0.7207791141       -2.0498717956
 H          7.4953497311        0.1215489541       -1.8471319825
 H          8.6116413937        0.3153551514        0.3445469314
 H          7.3525675099        1.1016717531        2.3147305240
 H          4.9406104980        1.7005217898        2.0713868341
 H          1.7497843177        1.1797356745        1.5056873770
 H          3.8782391238       -1.1559625276       -0.2723540031
 H          3.0590942185       -3.3487530710       -1.0630989791
 H          0.7184314416       -3.9993720267       -0.7231975881
 C         -1.2785868928       -2.4971348363        0.4957730508
 H         -1.4505072615       -2.5693285422        1.5800762961
 C         -1.7361976507       -3.7836084709       -0.1572942955
 C         -1.5263838207       -5.0961159970        0.5352825761
 C         -2.9039883398       -4.5167223165        0.4293306752
 H         -3.6112114775       -4.9802377295       -0.2419366447
 H         -3.3553897637       -4.0993408458        1.3176352487
 H         -1.0432463105       -5.0796897710        1.5003578192
 H         -1.2892650403       -5.9625483482       -0.0632459744
 H         -1.6565952700       -3.7525211550       -1.2381378570
 O         -2.9716647059       -0.9534130066        2.1902814697
