  62
        -98.94535669
 C         -1.8301294338       -0.9778890603        0.0505832606
 C         -2.6367777364       -0.3236709338        1.0103712170
 C         -3.2535797162        0.9374703672        0.5811232392
 C         -2.9771314118        1.4192549757       -0.6447806084
 C         -3.5799703151        2.6625284861       -1.2306701618
 C         -4.8676651597        2.3443146661       -2.0041735904
 C         -5.8567377043        1.4744623482       -1.2280978816
 H         -6.7372180073        1.3410916658       -1.8601377802
 H         -5.4174359219        0.4861589076       -1.0748923518
 C         -6.2838087383        2.0539349330        0.1276517607
 H         -6.0583437685        3.1203850039        0.1623975903
 H         -7.3657755027        1.9473077615        0.2292971816
 C         -5.6532421271        1.3638410744        1.3384555310
 H         -5.7976867441        0.2833328265        1.2608498691
 H         -6.1796102938        1.7013546838        2.2351839345
 C         -4.1592378357        1.6346039808        1.5574879178
 H         -3.9741507455        2.7110068823        1.5535464940
 H         -3.8917424194        1.2450150825        2.5444333474
 H         -5.3457014396        3.2863764980       -2.2785408069
 H         -4.5972456531        1.8193947186       -2.9232095102
 H         -3.7886255710        3.3705796530       -0.4307671665
 H         -2.8531343568        3.1062255712       -1.9133554239
 O         -2.1464077537        0.7946125138       -1.5171813953
 C         -1.5503067871       -0.4153311281       -1.1954310624
 O         -0.8159517997       -0.8807218009       -2.0866211503
 H          0.1920350635       -0.4207150516        1.6811159388
 C          0.8574905291       -1.0795545192        1.1353385024
 C          0.3200912862       -2.1373565892        0.4106132755
 C          1.1879231278       -2.9684353660       -0.2847406892
 C          2.5525852689       -2.7345575355       -0.2640939102
 C          3.0795804028       -1.6703572088        0.4447861199
 C          2.2194974327       -0.8378265646        1.1487303496
 N          2.7579264968        0.2786505816        1.8457779043
 S          2.9445178732        1.6181326230        0.8346721754
 O          3.2637509459        2.7238630248        1.7124816811
 O          1.7880744167        1.8026583947       -0.0166640891
 C          4.3683275373        1.1782893925       -0.1330115848
 C          5.6133002057        1.2496170031        0.4615902762
 C          6.7256379898        0.8664423418       -0.2704282938
 C          6.5729449818        0.4188714792       -1.5745329491
 C          5.3157409051        0.3549607393       -2.1564222987
 C          4.1982178712        0.7369495326       -1.4302479870
 H          3.2001622711        0.6965867183       -1.8381846556
 H          5.1979306857        0.0051091366       -3.1693666054
 H          7.4390947139        0.1173785285       -2.1421773971
 H          7.7050476379        0.9148504853        0.1774424772
 H          5.6811132077        1.6066505475        1.4757354643
 H          2.1729215647        0.5619291359        2.6216380816
 H          4.1406672276       -1.4835792553        0.4662754462
 H          3.2137859280       -3.3877260123       -0.8122114783
 H          0.7938280355       -3.7954327617       -0.8519767281
 C         -1.1791789029       -2.3004967337        0.4162235378
 H         -1.4958013401       -2.5045061335        1.4502330006
 C         -1.6799237910       -3.4145642200       -0.4774350195
 C         -1.6761414355       -4.8303715824        0.0144393333
 C         -2.9715001356       -4.0923314388       -0.1345041018
 H         -3.6367501939       -4.3701278470       -0.9381504075
 H         -3.4816238658       -3.7647683229        0.7597807410
 H         -1.4542843213       -5.6197387015       -0.6874373919
 H         -1.3083141863       -5.0103150262        1.0131658384
 H         -1.4739017810       -3.2321558574       -1.5259551132
 O         -2.8286166564       -0.7730232353        2.1743832843
