  62
        -98.94419645
 C          1.9737210792        1.1788710797       -0.1815341910
 C          2.3784279191       -0.0086137404       -0.8375299910
 C          3.8234992691       -0.2833271304       -0.8267006511
 C          4.6575176092        0.5844929196       -0.2256930513
 C          6.1406825492        0.3976450795       -0.0931437815
 C          6.4941131893       -0.3308716004        1.2111461085
 C          5.6751485293       -1.5989740803        1.4526019087
 H          4.6287308993       -1.3250570003        1.6059963589
 H          6.0309716394       -2.0432540503        2.3846962787
 C          5.7648432191       -2.6370046304        0.3252963888
 H          5.9082275591       -3.6245688704        0.7687738389
 H          6.6357428390       -2.4327430805       -0.2986040013
 C          4.5187681090       -2.7228843705       -0.5581494110
 H          3.6301125291       -2.8346794004        0.0686281191
 H          4.5992049689       -3.6228344205       -1.1738533909
 C          4.2912892689       -1.5391097205       -1.5066576611
 H          3.4924179488       -1.8187374905       -2.2000495910
 H          5.1979966689       -1.3509518906       -2.0853873312
 H          6.3216616795        0.3517524197        2.0463776685
 H          7.5564653193       -0.5804131605        1.1898620884
 H          6.6123654993        1.3816874395       -0.0885945516
 H          6.5080823891       -0.1665858206       -0.9480521615
 O          4.2315368793        1.7214742196        0.3813970486
 C          2.8849392094        2.0406222097        0.4300490088
 O          2.6286755195        3.1000800798        1.0369689687
 O          1.5821668690       -0.8008448704       -1.4056611708
 C          0.5026083793        1.5568173198       -0.1178629009
 C         -0.2510322807        0.4738088999        0.6144290593
 C          0.0726641895        0.2361032100        1.9489661693
 C         -0.5533782605       -0.7684278599        2.6595890395
 C         -1.5214492306       -1.5531428799        2.0564744296
 C         -1.8520182108       -1.3256232500        0.7262028797
 C         -1.2226001308       -0.3105892301        0.0152823995
 H         -1.4802346509       -0.1736560902       -1.0206430005
 N         -2.8080477009       -2.1310801200        0.0903038799
 S         -3.9566119110       -1.5033168500       -0.9447108001
 O         -4.8956448111       -2.5868165400       -1.1336649198
 O         -3.3388486811       -0.9772473802       -2.1341452702
 C         -4.7326928508       -0.1937317599       -0.0154225201
 C         -4.2615325908        1.0983088100       -0.1304512303
 C         -4.8424297006        2.0925767601        0.6412228497
 C         -5.8768081105        1.7801067703        1.5095401499
 C         -6.3402116806        0.4770009003        1.6119911001
 C         -5.7614650707       -0.5218573598        0.8464603301
 H         -6.0987259408       -1.5449340598        0.8859976802
 H         -7.1479735905        0.2379702604        2.2848226702
 H         -6.3258811304        2.5577932804        2.1069526399
 H         -4.4842666106        3.1065060501        0.5600920196
 H         -3.4594250408        1.3063076899       -0.8187406704
 H         -3.2077164709       -2.8494057899        0.6757705600
 H         -2.0057279506       -2.3455898498        2.6066289398
 H         -0.2886267504       -0.9435083898        3.6914967994
 H          0.8341055295        0.8473053300        2.4149190391
 H          0.4550332494        2.4743166299        0.4858408990
 C         -0.0288059309        1.8604228997       -1.5019760809
 C         -1.1966542309        2.7841445697       -1.6673005708
 C          0.1763111691        3.2319492996       -2.0685538710
 H          0.4037503690        3.3266628295       -3.1197676010
 H          0.6822067692        3.9552674097       -1.4453715611
 H         -1.9140657510        2.5725129497       -2.4466468207
 H         -1.6220199507        3.2139514498       -0.7727504308
 H          0.0614484790        1.0243009896       -2.1857688508
