  62
        -98.94700162
 C          2.1588497268        0.8612027376       -0.5079847627
 C          1.4812250660       -0.1915097087       -1.1682099748
 C          2.0205273796       -1.5430684083       -0.9552399721
 C          3.0851293327       -1.7162103006       -0.1533656796
 C          3.7003349725       -3.0408744789        0.1913958811
 C          3.0819826693       -3.6320868367        1.4654130712
 C          1.5528234437       -3.6461363766        1.4678980540
 H          1.2343265982       -4.1306306741        2.3941206282
 H          1.1755604308       -2.6206670012        1.5038600399
 C          0.9195994531       -4.3684498584        0.2706290498
 H          0.1077215661       -5.0007154545        0.6365018265
 H          1.6543498729       -5.0217424382       -0.2027294966
 C          0.3155496116       -3.4293427140       -0.7750890608
 H         -0.3183434266       -2.6969637466       -0.2685324336
 H         -0.3230219806       -4.0197374519       -1.4382505763
 C          1.3260331414       -2.6789237126       -1.6528264553
 H          2.0543453124       -3.3832128244       -2.0609282934
 H          0.7774124527       -2.2310624367       -2.4864426627
 H          3.4187042759       -3.0416338587        2.3208788877
 H          3.4551908942       -4.6509496659        1.5877959460
 H          4.7690300909       -2.8899432971        0.3547457688
 H          3.5635640518       -3.7267596456       -0.6424495868
 O          3.7103518803       -0.6852472402        0.4707340602
 C          3.2572202787        0.6130338868        0.3210968931
 O          3.9179895472        1.4586121412        0.9593108870
 O          0.4780486086       -0.0390331722       -1.9150346284
 C          1.7301084051        2.3203047876       -0.5757860657
 C          0.6944160505        2.5929922176        0.4900818524
 C          0.9029064406        3.5729147277        1.4526301837
 C         -0.0279245206        3.7807655612        2.4550439318
 C         -1.1633225025        2.9957324434        2.5312090988
 C         -1.3814741231        2.0110090252        1.5724481691
 C         -0.4709930896        1.8407043861        0.5410961555
 H         -0.6483776934        1.0831800202       -0.2027533820
 N         -2.5184742688        1.1938222956        1.6378693643
 S         -2.4446851814       -0.4566614731        1.3158449358
 O         -3.2681666569       -1.0642239605        2.3436628633
 O         -1.0828642364       -0.9220292444        1.2374636558
 C         -3.3048216635       -0.6017864467       -0.2370959425
 C         -4.6867834037       -0.6017190754       -0.1876203362
 C         -5.4046505346       -0.6815744995       -1.3686247241
 C         -4.7317302971       -0.7595225500       -2.5791265983
 C         -3.3466884386       -0.7606222754       -2.6118002621
 C         -2.6206593530       -0.6801162952       -1.4321800858
 H         -1.5413827414       -0.6720651962       -1.4452108701
 H         -2.8169738841       -0.8195724160       -3.5492916385
 H         -5.2884840771       -0.8208243503       -3.5010354068
 H         -6.4824834793       -0.6823098278       -1.3430851040
 H         -5.1676208966       -0.5536014002        0.7753636451
 H         -3.1043789405        1.3678837107        2.4415765879
 H         -1.8753213418        3.1356590709        3.3309077131
 H          0.1431199779        4.5456122605        3.1975594386
 H          1.8108665599        4.1573595152        1.4248658997
 H          2.6260017212        2.9051132995       -0.3243846946
 C          1.2380620729        2.7648812278       -1.9384410070
 C          1.3046589527        4.2191811947       -2.2919924620
 C          2.2278435519        3.2427812202       -2.9558827148
 H          2.0608523318        2.9923228138       -3.9925214522
 H          3.2705683385        3.2523314541       -2.6724323337
 H          0.5008906946        4.6438439663       -2.8733071548
 H          1.7234519049        4.8944788274       -1.5612088258
 H          0.3912970146        2.1967417213       -2.2981699356
