  62
        -98.94393204
 C          1.8298476863        1.1262604229        0.2117063460
 C          2.1777443414        0.1007719857       -0.6998783864
 C          3.6104500223       -0.0175527239       -1.0103772620
 C          4.4810679666        0.8426445400       -0.4511623298
 C          5.9696234190        0.7998960435       -0.6377620195
 C          6.6396667992       -0.0576287279        0.4450214252
 C          5.9888192478       -1.4272654947        0.6387554558
 H          6.5621561446       -1.9546220054        1.4042490233
 H          4.9783925844       -1.2907287637        1.0309841815
 C          5.9240924713       -2.2850355244       -0.6326125759
 H          6.6296606290       -1.9052963852       -1.3724578312
 H          6.2312357834       -3.3031707022       -0.3843465650
 C          4.5332953742       -2.3815372556       -1.2629426680
 H          4.5545724918       -3.1754441749       -2.0144678142
 H          3.8035827848       -2.6722592565       -0.5025691792
 C          4.0243014014       -1.1106057868       -1.9548841209
 H          4.7751759372       -0.7492159423       -2.6606091605
 H          3.1238629925       -1.3769408573       -2.5166419731
 H          6.5901347226        0.4819137387        1.3936042806
 H          7.6910242789       -0.1865271270        0.1818195815
 H          6.1956241702        0.4004945140       -1.6244251792
 H          6.3539371612        1.8190484026       -0.5709761100
 O          4.1040588900        1.8312816704        0.3993479033
 C          2.7766066837        1.9896809587        0.7625066467
 O          2.5701734935        2.9170403088        1.5710554683
 H         -2.0260301032        0.0996726136        0.0250676443
 C         -1.4418767663       -0.4389755236        0.7519010232
 C         -0.2002518968        0.0369373534        1.1441370840
 C          0.5241360207       -0.6873193423        2.0877104047
 C          0.0325764712       -1.8723678507        2.5982101906
 C         -1.1949778120       -2.3582589161        2.1838371234
 C         -1.9359604654       -1.6343991837        1.2575630760
 N         -3.2058106978       -2.0779946236        0.8714082821
 S         -3.8945349925       -1.7016272327       -0.6005175877
 O         -5.0049965497       -2.6252352447       -0.7102275083
 O         -2.9439688567       -1.7298323779       -1.6863898887
 C         -4.5411940103       -0.0560259720       -0.3858771000
 C         -5.0731680049        0.3086939343        0.8350743192
 C         -5.6143796799        1.5764165426        0.9770227067
 C         -5.6244740462        2.4505308976       -0.0991784508
 C         -5.0924319227        2.0671683253       -1.3204528436
 C         -4.5442024385        0.8022671040       -1.4673643512
 H         -4.1073385579        0.4676764502       -2.3952444735
 H         -5.1012488767        2.7473126505       -2.1575866586
 H         -6.0470406833        3.4363872704        0.0134653846
 H         -6.0273457183        1.8787357647        1.9258732337
 H         -5.0498711887       -0.3944873870        1.6505234192
 H         -3.4649577368       -2.9977310205        1.1947505549
 H         -1.5763433391       -3.2896613624        2.5735977369
 H          0.6114632600       -2.4277790327        3.3209735544
 H          1.4871594427       -0.3112612833        2.4066147375
 C          0.3786371907        1.3241090362        0.6104593620
 H          0.3874187786        2.0601778303        1.4281641766
 C         -0.4049715178        1.9015426053       -0.5502427989
 C         -1.5686534846        2.8104153354       -0.2946787081
 C         -0.2884890908        3.3669331457       -0.8394962540
 H         -0.2598125530        3.6880858149       -1.8698676955
 H          0.3405286033        3.9500841227       -0.1825637059
 H         -2.4236818199        2.7501846657       -0.9507630933
 H         -1.8172347068        3.0253191101        0.7334889156
 H         -0.4563545721        1.2247974132       -1.3966265593
 O          1.3394507917       -0.6780780832       -1.2252482338
