  62
        -98.94602741
 C         -1.7221587256       -1.1862837343       -0.8049705404
 C         -2.8607671285       -0.6182113700       -0.1751767670
 C         -3.1763750813        0.7696267755       -0.5211407640
 C         -2.4193771422        1.4169143900       -1.4247701474
 C         -2.5890093818        2.8444335418       -1.8664377987
 C         -1.9026347865        3.8471093386       -0.9283727394
 C         -2.6141638167        4.0733627946        0.4062388547
 H         -2.1687521688        4.9613755537        0.8594503250
 H         -3.6679507092        4.2908654397        0.2260408379
 C         -2.4867559277        2.9042542747        1.3934554677
 H         -1.6535016872        2.2628370846        1.0927700959
 H         -2.2389449838        3.2927452488        2.3846993798
 C         -3.7517451414        2.0576942288        1.5450146467
 H         -4.5449989908        2.6639190455        1.9892343924
 H         -3.5295635403        1.2359548263        2.2310486570
 C         -4.2749176039        1.4520232295        0.2359617008
 H         -5.0274553636        0.6992758026        0.4840909074
 H         -4.7390966982        2.2239081449       -0.3774784788
 H         -0.8826189873        3.5031573565       -0.7361112927
 H         -1.8426726733        4.8034412525       -1.4536847264
 H         -2.1304534627        2.9246133009       -2.8543878558
 H         -3.6489590105        3.0852741471       -1.9520511524
 O         -1.3840714103        0.8188879885       -2.0620739332
 C         -0.9640599162       -0.4597848410       -1.7217405326
 O          0.0694997913       -0.8095231995       -2.3277157208
 H          0.8642348132       -0.9874199668       -0.0197250376
 C          0.6065536342       -1.4762765968        0.9043493592
 C         -0.4599335865       -2.3640358120        0.9357331419
 C         -0.7643667756       -3.0021310847        2.1309037153
 C         -0.0344256587       -2.7298523334        3.2751007260
 C          0.9798740700       -1.7905992965        3.2552197538
 C          1.2954890287       -1.1492314786        2.0608503347
 N          2.2991244771       -0.1724641244        2.0154939206
 S          2.1686723864        1.2096094354        1.0643686890
 O          2.6823698495        2.2741077215        1.9045105967
 O          0.8325741296        1.3938464775        0.5550317613
 C          3.3531913882        0.9106125401       -0.2317343444
 C          4.6836630095        1.1308362544        0.0746301294
 C          5.6477979287        0.8871479095       -0.8884037881
 C          5.2686490698        0.4263957806       -2.1406686929
 C          3.9314203406        0.2123958488       -2.4332899808
 C          2.9597889475        0.4552828702       -1.4729012739
 H          1.9149554959        0.2898925122       -1.6886561265
 H          3.6278145508       -0.1459388016       -3.4041069324
 H          6.0173321249        0.2348824832       -2.8932083832
 H          6.6881933238        1.0561842881       -0.6619556112
 H          4.9311512073        1.5032441870        1.0548369048
 H          2.6998240949        0.0527234369        2.9144270924
 H          1.5191260157       -1.5442678945        4.1574797638
 H         -0.2783382639       -3.2309212832        4.1996822874
 H         -1.5940253733       -3.6922826667        2.1679594643
 C         -1.3058869633       -2.5596098646       -0.3026870995
 H         -2.2360089756       -3.0566459762        0.0067729181
 C         -0.6052016523       -3.4400498116       -1.3146759325
 C         -0.6515304915       -4.9274157035       -1.1369338060
 C         -1.4221565524       -4.2805253971       -2.2475786860
 H         -1.0758750761       -4.4040979889       -3.2623489451
 H         -2.4973298780       -4.2243295232       -2.1580112069
 H         -1.2063497110       -5.3156471113       -0.2963440958
 H          0.2269904378       -5.5016063094       -1.3872491341
 H          0.3055910533       -3.0077849890       -1.7065052526
 O         -3.5772264911       -1.2488279613        0.6491646109
