  62
        -98.94179194
 C         -1.1689634193       -1.5333489295        0.4891902112
 C         -2.1377967893       -1.2127160107       -0.4901481692
 C         -3.2220455698       -0.3120591108       -0.0627924401
 C         -3.2356545101        0.1584849403        1.1959655795
 C         -4.2551547106        1.0567234804        1.8507852086
 C         -4.7601210010        2.2606100695        1.0439304675
 C         -3.7308216911        2.8873113792        0.0914522771
 H         -3.7031280516        3.9659145493        0.2600630363
 H         -2.7292171610        2.5064438698        0.3048378576
 C         -4.0642919808        2.6540516078       -1.3842661227
 H         -3.5344063010        3.3993864975       -1.9824740532
 H         -5.1348953308        2.8152566873       -1.5310241630
 C         -3.6843782601        1.2804284175       -1.9349633615
 H         -2.5950398801        1.1967835779       -1.9926774513
 H         -4.0655799299        1.2100689265       -2.9567485515
 C         -4.2036746298        0.0777110680       -1.1297008606
 H         -5.1913022499        0.2739420379       -0.7195029909
 H         -4.2688348593       -0.7774447626       -1.8078869599
 H         -5.6409091008        1.9724407787        0.4714303376
 H         -5.0865486614        3.0094693800        1.7676959468
 H         -5.1099816604        0.4422828603        2.1486857590
 H         -3.7748916009        1.4084287714        2.7671696184
 O         -2.2774663301       -0.1739688986        2.1069261399
 C         -1.2113666598       -0.9897404184        1.7708627607
 O         -0.3792979998       -1.1551442073        2.6877307910
 H          0.4431125600        0.2192895407       -0.1458915200
 C          0.9650084404       -0.3363007297       -0.9091849295
 C          0.8369425610       -1.7167948498       -0.9581132984
 C          1.4934995414       -2.4043307504       -1.9713521177
 C          2.2421034112       -1.7153876609       -2.9104501982
 C          2.3743189607       -0.3394521808       -2.8498251393
 C          1.7259009802        0.3560564698       -1.8360971699
 N          1.8243548896        1.7512870499       -1.7192598811
 S          1.8804035691        2.4322162812       -0.1916081716
 O          0.5723496190        2.4272558312        0.4141165582
 O          2.4676158386        3.7379445313       -0.4069590826
 C          3.0237641694        1.4018987724        0.7113180294
 C          4.3510114795        1.4583160727        0.3286667595
 C          5.2698773897        0.6358935136        0.9578956704
 C          4.8476178199       -0.2330933858        1.9531597610
 C          3.5149870999       -0.2735787660        2.3301822008
 C          2.5903490896        0.5504616831        1.7062445900
 H          1.5481247896        0.5263811729        1.9853801699
 H          3.1754037500       -0.9451767455        3.1028153113
 H          5.5598078601       -0.8804835651        2.4399361217
 H          6.3080614197        0.6707092738        0.6698116505
 H          4.6409302593        2.1545657822       -0.4414858110
 H          2.4729918696        2.1912299397       -2.3550335913
 H          2.9617693106        0.1929401389       -3.5817556096
 H          2.7380496716       -2.2600361113       -3.6993322776
 H          1.4114200018       -3.4772601705       -2.0307855468
 C          0.0240239111       -2.3943395193        0.1205292021
 H          0.6506573610       -2.4466925983        1.0241877022
 C         -0.4154141483       -3.7959001098       -0.2493308568
 C          0.4668037321       -4.9694857491        0.0504271643
 C         -0.7825326981       -4.7485865290        0.8473945039
 H         -1.6200658478       -5.4125960095        0.6953303243
 H         -0.6877233084       -4.3928669281        1.8634063836
 H          1.4130287520       -4.7752024684        0.5324409242
 H          0.4859552926       -5.7917351297       -0.6489100751
 H         -1.0130591382       -3.8179485707       -1.1529510169
 O         -2.1048424690       -1.6566323016       -1.6673685889
