  62
        -98.93770333
 C         -2.3670683304       -1.2107027103        0.2299695899
 C         -2.4022815201        0.0798844197       -0.3489771001
 C         -3.3977351099        1.0157935599        0.2048399598
 C         -4.1890283100        0.6224358501        1.2169319598
 C         -5.2366418199        1.4180851203        1.9544935598
 C         -6.1778273197        2.2975106004        1.1190235097
 C         -6.5032478598        1.7567876205       -0.2809439103
 H         -6.1693556600        0.7216893004       -0.3698898602
 H         -7.5858125298        1.7633840707       -0.4203812803
 C         -5.8813923996        2.5918498504       -1.4029587602
 H         -6.4290952396        2.3998178005       -2.3287231203
 H         -6.0070287894        3.6498778304       -1.1628144003
 C         -4.4049893496        2.3162834601       -1.6861578502
 H         -4.0579851395        3.0540308400       -2.4138113402
 H         -4.2939076598        1.3324630901       -2.1500260902
 C         -3.4767204897        2.3594739899       -0.4611761702
 H         -2.4648559396        2.5837252597       -0.8109795002
 H         -3.7798905395        3.1367401100        0.2362404098
 H         -7.1008338297        2.4030608606        1.6915254097
 H         -5.7532426495        3.2959279204        1.0228609298
 H         -5.8204981401        0.6757705104        2.5038652298
 H         -4.7289549598        2.0415670202        2.6962198798
 O         -4.1073898003       -0.6258603000        1.7579596198
 C         -3.2047053805       -1.5623106301        1.2901759598
 O         -3.2455574007       -2.6565491901        1.8870835298
 H          0.5167907897       -0.9206203009       -1.7025703101
 C          0.8408046897       -1.1311483109       -0.6959369800
 C          0.0060230895       -1.8235234708        0.1662068599
 C          0.4341536194       -2.0499941009        1.4715513799
 C          1.6696848695       -1.5996641811        1.8960790100
 C          2.4998799297       -0.9049686513        1.0327911700
 C          2.0730479597       -0.6565409412       -0.2639975700
 N          2.9005779999        0.0587915586       -1.1457979400
 S          3.6379378802        1.4622048885       -0.5949569200
 O          2.8750807303        2.0977900287        0.4543874500
 O          3.8833000004        2.2507467884       -1.7829720500
 C          5.1992171200        0.8881020282        0.0439363001
 C          6.0138605899        0.1523708980       -0.7944315299
 C          7.2336411598       -0.2987584822       -0.3164180599
 C          7.6180547998       -0.0060399623        0.9836977501
 C          6.7913712500        0.7377540179        1.8116044201
 C          5.5694488901        1.1915256181        1.3393763801
 H          4.8924538802        1.7694205383        1.9486593400
 H          7.0919341200        0.9655707778        2.8217294801
 H          8.5675464198       -0.3592119325        1.3539227902
 H          7.8794632797       -0.8767192123       -0.9576426299
 H          5.6798968399       -0.0497465319       -1.7983178599
 H          2.4805103400        0.2111013787       -2.0517523900
 H          3.4594604397       -0.5407846515        1.3611361600
 H          1.9904231094       -1.7870916012        2.9096280800
 H         -0.2246187107       -2.5718607507        2.1520945299
 C         -1.3784008606       -2.2672742805       -0.2391423401
 H         -1.6219826308       -3.1761870705        0.3267608999
 C         -1.5216206606       -2.5626456705       -1.7174479001
 C         -0.8849808408       -3.7964534106       -2.2808676601
 C         -2.3756726808       -3.7135445803       -2.1531278001
 H         -2.9660643808       -3.6051668302       -3.0507385601
 H         -2.8574521609       -4.2980396502       -1.3828532501
 H         -0.4503305108       -3.7492759707       -3.2676003601
 H         -0.3526812210       -4.4376762607       -1.5948017901
 H         -1.5418275004       -1.6735531805       -2.3351571801
 O         -1.6456658300        0.4502303695       -1.2853165401
