  62
        -98.93937405
 C         -2.1209720158       -0.4305172831       -1.0374457019
 C         -2.9302403389        0.7279630366       -0.9278746974
 C         -4.3368127305        0.4931383864       -0.5594328732
 C         -4.7725067102       -0.7624582321       -0.3571964279
 C         -6.1585144098       -1.1317231151        0.0840242611
 C         -6.2499057130       -1.2115040063        1.6144050864
 C         -5.6624504783        0.0038147271        2.3320808631
 H         -5.8097308225       -0.1491147147        3.4034366655
 H         -4.5843635217        0.0334414449        2.1577057900
 C         -6.2808365831        1.3461911406        1.9169812610
 H         -6.4797657145        1.9327581125        2.8164148983
 H         -7.2384016579        1.1759338801        1.4235399443
 C         -5.3908806018        2.2025989073        1.0144197541
 H         -4.3994577391        2.2987974582        1.4637665462
 H         -5.8250062002        3.2045293333        0.9615240371
 C         -5.2208838674        1.7014591028       -0.4253412543
 H         -6.2009298797        1.5128668933       -0.8678887210
 H         -4.7315525024        2.4955061882       -0.9969284215
 H         -7.2991052541       -1.3288954913        1.8917313699
 H         -5.7087321916       -2.1003482000        1.9473234396
 H         -6.8639034552       -0.3947123918       -0.2948845532
 H         -6.4050085670       -2.1077362778       -0.3374607140
 O         -3.9708337458       -1.8511095753       -0.4858233882
 C         -2.6343348789       -1.7114049618       -0.8154719580
 O         -2.0118062101       -2.7906941603       -0.8903820976
 O         -2.5214636306        1.9014362283       -1.1178725558
 C         -0.6458293363       -0.3803762693       -1.3981798725
 C          0.2085570379       -0.1984268525       -0.1688872954
 C         -0.0855209365        0.7779889484        0.7788840231
 C          0.7047756260        0.9265555889        1.9033476301
 C          1.8160734545        0.1230541592        2.0931650232
 C          2.1245590602       -0.8469187356        1.1482349914
 C          1.3155680210       -1.0098974545        0.0314756632
 H          1.5647203474       -1.7781217564       -0.6847048711
 N          3.2627039135       -1.6683423281        1.2916558522
 S          4.4658429861       -1.4886137346        0.1387199334
 O          3.9409254064       -1.8087038453       -1.1625412740
 O          5.5720112380       -2.2898546477        0.6102675409
 C          4.8886972796        0.2426799614        0.2273260581
 C          5.9160694358        0.6401994855        1.0607256010
 C          6.1910657650        1.9923332693        1.1873292104
 C          5.4301682628        2.9196051667        0.4911719676
 C          4.4001818999        2.5046791587       -0.3390952874
 C          4.1237381973        1.1533361762       -0.4737162659
 H          3.3343159097        0.7954035152       -1.1136405970
 H          3.8074169258        3.2237618908       -0.8816040205
 H          5.6413042689        3.9722667639        0.5941063657
 H          6.9934201478        2.3184755247        1.8293427850
 H          6.4840868547       -0.1153123603        1.5793198193
 H          3.6768697809       -1.6265152047        2.2129357939
 H          2.4377273626        0.2428019563        2.9677978446
 H          0.4606190778        1.6830089188        2.6334909943
 H         -0.9347515896        1.4238085231        0.6172820518
 H         -0.4158755583       -1.3762352527       -1.8095958011
 C         -0.3293948315        0.6428771002       -2.4829967253
 C          0.5625560975        1.8234493389       -2.2575257940
 C          1.0430377348        0.6735710268       -3.0882515940
 H          1.1339476825        0.8063802008       -4.1558929248
 H          1.7852802904        0.0080236372       -2.6694636169
 H          0.3022547286        2.7461393439       -2.7530663486
 H          0.9851847517        1.9614614439       -1.2745047763
 H         -1.1623975462        0.7896981283       -3.1616585085
