  62
        -98.94754086
 C         -1.0973636402       -1.1663711106        0.4594901106
 C         -1.5123560504       -0.4717078806       -0.7019379494
 C         -2.3243655706        0.7323655992       -0.4672926392
 C         -2.5179656307        1.1616126891        0.7926945808
 C         -3.3613533709        2.3427026089        1.1758489009
 C         -4.8060770008        1.9138354485        1.4699820409
 C         -5.4144405107        1.0112903885        0.3958751708
 H         -4.8784179305        0.0593150186        0.3851831808
 H         -6.4417431506        0.7965225383        0.6982559608
 C         -5.4128470308        1.6109735686       -1.0175180091
 H         -5.2769386311        2.6914987786       -0.9601353490
 H         -6.3888241208        1.4311599884       -1.4730724891
 C         -4.3646911807        1.0168953089       -1.9608766492
 H         -4.4346671505       -0.0735476511       -1.9455922293
 H         -4.5977376008        1.3457394389       -2.9769184791
 C         -2.9111197108        1.4135032492       -1.6721460592
 H         -2.2998484508        1.0956533994       -2.5215149392
 H         -2.8453756110        2.4996721292       -1.5843090891
 H         -5.4168106210        2.8113650384        1.5833464010
 H         -4.8195300407        1.3720906385        2.4187450909
 H         -2.9351551610        2.7950027789        2.0731183409
 H         -3.3474627211        3.0743614889        0.3702396810
 O         -2.0005435305        0.5299160791        1.8792725807
 C         -1.3250653103       -0.6732467308        1.7442850806
 O         -0.9795496402       -1.1934663208        2.8251419206
 H          1.6198751298       -0.9634512801        1.1822355405
 C          1.8761191598       -1.4458380500        0.2497735205
 C          0.9574025000       -2.2968787201       -0.3545420996
 C          1.3113979301       -2.9287682499       -1.5388354696
 C          2.5536672001       -2.7027928796       -2.1059117896
 C          3.4633591699       -1.8532478095       -1.5052264396
 C          3.1232195398       -1.2237401897       -0.3118437195
 N          4.0503741896       -0.3947173695        0.3387756805
 S          3.5865981793        1.0014009103        1.1224519707
 O          4.8303655992        1.7099118906        1.3363079107
 O          2.8227544894        0.6920436701        2.3038385306
 C          2.5941495591        1.9003001702       -0.0534102193
 C          1.2283196791        1.9875973899        0.1133448808
 C          0.4852219389        2.6946023398       -0.8187085991
 C          1.1147601988        3.2855577700       -1.9022674591
 C          2.4890494388        3.1852072204       -2.0589135692
 C          3.2376618790        2.4883538604       -1.1257165392
 H          4.3099953590        2.4073330707       -1.1977592193
 H          2.9759677487        3.6492568305       -2.9013196591
 H          0.5286145287        3.8300191100       -2.6254156091
 H         -0.5821826211        2.7695394796       -0.6919031791
 H          0.7680836992        1.5113968497        0.9659780008
 H          4.9188439096       -0.2634481493       -0.1588394095
 H          4.4336013398       -1.6828853192       -1.9458972896
 H          2.8159401001       -3.1952873495       -3.0297422997
 H          0.6150412502       -3.5938643500       -2.0211826696
 C         -0.3706287099       -2.4942226504        0.3350589205
 H         -0.1634633898       -2.8203047605        1.3649430504
 C         -1.2644248797       -3.5199860906       -0.3303142196
 C         -1.0402492594       -4.9803630705       -0.0835978497
 C         -2.2307589796       -4.2933844908        0.5134790404
 H         -3.2089944995       -4.5105717210        0.1112432504
 H         -2.2309985596       -4.0965112409        1.5761846804
 H         -1.2038674593       -5.6729278605       -0.8951421498
 H         -0.2316534193       -5.2564123004        0.5762358002
 H         -1.5999505398       -3.2113956206       -1.3133123996
 O         -1.2405512503       -0.8421649604       -1.8722881694
