  62
        -98.94608004
 C          1.0007556040        1.6319799175        0.6282390157
 C          1.7812804275        1.5313047730       -0.5483503536
 C          2.8877755224        0.5649747431       -0.5001699325
 C          3.0812822190       -0.1625936064        0.6148994403
 C          4.1701611643       -1.1803466587        0.7931407542
 C          3.7091828563       -2.5855704404        0.3845420565
 C          3.0012864149       -2.6358640746       -0.9688353514
 H          2.7389101691       -3.6778622198       -1.1608009179
 H          2.0647614064       -2.0767468646       -0.9037638015
 C          3.8361474472       -2.0992712534       -2.1399880644
 H          4.8912671483       -2.0783212742       -1.8643410818
 H          3.7352712758       -2.7844414784       -2.9841613822
 C          3.4181157583       -0.7153880447       -2.6400363967
 H          3.9165737597       -0.5349294012       -3.5962627674
 H          2.3408977516       -0.7007113480       -2.8250180954
 C          3.7635442457        0.4596849852       -1.7166656569
 H          4.8168174250        0.4084652930       -1.4329535908
 H          3.6040508371        1.3837206013       -2.2801008203
 H          4.5810767746       -3.2418751382        0.3662324074
 H          3.0191465564       -2.9531468768        1.1451320543
 H          5.0318775439       -0.8818297263        0.1989148925
 H          4.4563303716       -1.1929961027        1.8463227411
 O          2.2803774773       -0.0708080083        1.7080730617
 C          1.2222585831        0.8228343751        1.7417680485
 O          0.5641484099        0.8017887650        2.8025845919
 O          1.5766502198        2.2213547502       -1.5807059651
 C         -0.1417236642        2.6293800238        0.6921940888
 C         -1.1717652792        2.3006457671       -0.3612673631
 C         -1.6646786774        3.2227513684       -1.2742732784
 C         -2.6208087590        2.8436003701       -2.2009362436
 C         -3.1242408734        1.5563850267       -2.2155214078
 C         -2.6443456015        0.6273101722       -1.2981470128
 C         -1.6631829529        1.0011118599       -0.3957536381
 H         -1.2840233555        0.2764664880        0.3097919161
 N         -3.1346244119       -0.6868487486       -1.2772084423
 S         -3.3903569785       -1.4696381739        0.1826936181
 O         -4.4594997553       -2.4053533863       -0.0981167041
 O         -3.6303881695       -0.5320709335        1.2532731283
 C         -1.9012972687       -2.4021724577        0.4666031798
 C         -1.6350472661       -3.4534166026       -0.3898076233
 C         -0.5142715642       -4.2347529395       -0.1657784197
 C          0.3186728933       -3.9545279456        0.9071661031
 C          0.0448070610       -2.8899810769        1.7512495714
 C         -1.0778078564       -2.1060113807        1.5336047490
 H         -1.3138827520       -1.2729260432        2.1790813493
 H          0.6946211909       -2.6537021711        2.5797102358
 H          1.1835293693       -4.5730587326        1.0888229260
 H         -0.2945262061       -5.0611182536       -0.8221727794
 H         -2.3181179616       -3.6478476863       -1.1997858979
 H         -3.8825389199       -0.8691277395       -1.9306515188
 H         -3.8816277470        1.2681848812       -2.9286752464
 H         -2.9890032575        3.5659630772       -2.9137103076
 H         -1.2973990577        4.2355699202       -1.2665910126
 H         -0.6178112003        2.4860882290        1.6740661569
 C          0.3891791560        4.0451356081        0.6107480972
 C         -0.3776816779        5.1723730826        1.2319636914
 C          0.8985942591        4.6989562345        1.8585090700
 H          1.7726953648        5.3291122087        1.7914132946
 H          0.8398705280        4.1307051816        2.7758056807
 H         -0.3786743878        6.1316849311        0.7368437738
 H         -1.3056234135        4.9311978236        1.7286349292
 H          0.9288318736        4.2365942478       -0.3093188011
