  62
        -98.94606974
 C         -1.6552770198       -1.3112333408        0.4086536587
 C         -1.5522453601       -0.2606523999       -0.5350363503
 C         -2.4278180404        0.8957236796       -0.2984775292
 C         -3.2184450505        0.9304163183        0.7893060508
 C         -4.1345439609        2.0561107577        1.1857061019
 C         -5.5098367208        2.0093917280        0.5060544317
 C         -5.5128863008        2.3754755494       -0.9786538979
 H         -6.5554356409        2.5111734094       -1.2731435578
 H         -5.0092537611        3.3327062097       -1.1173616769
 C         -4.8760508705        1.3187369505       -1.8920111589
 H         -4.8077064802        0.3685007200       -1.3573312298
 H         -5.5195273804        1.1513213011       -2.7587300891
 C         -3.4911915705        1.6899431214       -2.4225763385
 H         -3.1224140303        0.8573791621       -3.0272572993
 H         -3.5699397108        2.5658366020       -3.0705040976
 C         -2.4513633807        1.9821386207       -1.3323406081
 H         -2.6567720510        2.9477379601       -0.8701356972
 H         -1.4664058107        2.0206206214       -1.8047684880
 H         -5.9303420505        1.0094740577        0.6357560907
 H         -6.1583253510        2.7129484972        1.0331167424
 H         -4.2815145809        1.9710748966        2.2644868318
 H         -3.6564442611        3.0128375880        0.9738982328
 O         -3.2588553403       -0.0828804525        1.6938702598
 C         -2.5006632999       -1.2268530422        1.5192465787
 O         -2.6589381497       -2.0861875731        2.4083148279
 O         -0.7786129600       -0.2682070187       -1.5285091802
 C         -0.8086323294       -2.5709958105        0.2964369275
 C          0.6199085604       -2.1732838103        0.5739111680
 C          1.0619796703       -2.0711592715        1.8900567881
 C          2.3324842002       -1.6056528914        2.1745692586
 C          3.1777030001       -1.2018948201        1.1549599791
 C          2.7369507502       -1.2858348290       -0.1587327510
 C          1.4789477604       -1.7971694791       -0.4460591516
 H          1.1515573904       -1.8493581182       -1.4717260617
 N          3.5553171201       -0.8054387077       -1.1970890405
 S          4.2508803097        0.6977829623       -0.9542663790
 O          4.3441181496        1.2984876536       -2.2672421584
 O          5.5056152497        0.5324460019       -0.2606609791
 C          3.1295350893        1.6274000909        0.0838459918
 C          3.6484170991        2.2935118000        1.1764044625
 C          2.7975397488        3.0265087689        1.9874155132
 C          1.4428405488        3.0741157188        1.6983648332
 C          0.9367162591        2.3993607598        0.5986701725
 C          1.7838172593        1.6731506808       -0.2233449682
 H          1.3911963195        1.1377815315       -1.0739162087
 H         -0.1189812709        2.4206779297        0.3775671224
 H          0.7751856086        3.6363284880        2.3320476037
 H          3.1908358486        3.5517167282        2.8428324637
 H          4.7057663491        2.2169591701        1.3720713625
 H          3.1122990802       -0.8483148370       -2.1040578606
 H          4.1634091700       -0.8141553600        1.3570316795
 H          2.6642168201       -1.5408246623        3.1995083487
 H          0.3875713704       -2.3462791724        2.6889606978
 H         -1.1445710793       -3.2346808313        1.1034069369
 C         -1.0053095692       -3.2757896692       -1.0293769332
 C         -0.4934675687       -4.6741510489       -1.1961684845
 C         -1.9680534688       -4.4200121694       -1.1157048144
 H         -2.5603188987       -4.5281967287       -2.0121414945
 H         -2.4880673388       -4.7061923105       -0.2130715047
 H         -0.0715403486       -4.9605633179       -2.1474403248
 H         -0.0104743287       -5.1314492096       -0.3458604949
 H         -0.9539768493       -2.6135461684       -1.8843474225
