  62
        -98.95135694
 C         -2.3389668315       -0.0748160378        0.1127219446
 C         -1.6094145548        0.4871937841       -0.9613499165
 C         -1.4410421392        1.9447962867       -0.9277528344
 C         -1.8895799551        2.6415790110        0.1321075417
 C         -1.7969168589        4.1318236924        0.3179738245
 C         -0.4383879132        4.6072363376        0.8506022847
 C          0.6973263657        4.6063539672       -0.1730882916
 H          0.3720496790        5.1247426908       -1.0762332589
 H          1.5164226066        5.1843994115        0.2595752961
 C          1.2230943526        3.2111352740       -0.5380195810
 H          2.3164602821        3.2276443800       -0.5485569486
 H          0.9308050585        2.4927202068        0.2318924539
 C          0.7690880797        2.6972358509       -1.9034756472
 H          1.1881193681        1.6987756453       -2.0412331849
 H          1.1709000977        3.3434027814       -2.6877780706
 C         -0.7517004135        2.6093485596       -2.0830332950
 H         -1.1661854806        3.6063587179       -2.2354255210
 H         -0.9531320900        2.0080601393       -2.9733828754
 H         -0.5699624101        5.6287310505        1.2158349785
 H         -0.1574940803        3.9814393046        1.7015982706
 H         -2.0166526810        4.6355742508       -0.6241187174
 H         -2.5666004386        4.4014419779        1.0445605232
 O         -2.5205983668        2.0536264573        1.1832555218
 C         -2.7642607968        0.6910602774        1.1971497913
 O         -3.3673547183        0.2852391854        2.2135417222
 H         -0.5259854726       -0.9996239954        1.6930192232
 C         -0.3215330139       -1.8578749637        1.0695415225
 C         -1.2971290185       -2.3181565175        0.1946187480
 C         -1.0149246969       -3.4327240561       -0.5851002026
 C          0.2227012543       -4.0484715405       -0.5038579876
 C          1.2087901897       -3.5541769405        0.3308088316
 C          0.9324192784       -2.4437008752        1.1200828820
 N          1.9082885160       -1.8715351956        1.9634487056
 S          2.3560080494       -0.2907668990        1.6231914271
 O          3.4317950300        0.0011503496        2.5461064486
 O          1.2061914314        0.5728399350        1.6912421224
 C          3.0088692369       -0.3739343253       -0.0352248992
 C          4.3801331225       -0.3526093273       -0.2065642555
 C          4.9020479974       -0.4954391838       -1.4816373174
 C          4.0478201669       -0.6720593998       -2.5600865833
 C          2.6752673027       -0.6978817000       -2.3709720003
 C          2.1447079076       -0.5462433700       -1.0982440623
 H          1.0780105562       -0.5544079127       -0.9374875281
 H          2.0000680532       -0.8330981320       -3.2010567805
 H          4.4520337184       -0.7893055241       -3.5531108533
 H          5.9697075783       -0.4731299133       -1.6295784632
 H          5.0036666837       -0.2174991386        0.6624670543
 H          2.7412572852       -2.4360846816        2.0634380510
 H          2.1829638381       -4.0175796490        0.3718929878
 H          0.4286412344       -4.9139293296       -1.1147940423
 H         -1.7617325193       -3.8156628800       -1.2610078702
 C         -2.6074826718       -1.5697672755        0.1531525883
 H         -3.1340006584       -1.7558789085        1.1011469624
 C         -3.5044734327       -1.9800903311       -0.9958663545
 C         -4.4216795616       -3.1564689829       -0.8534406308
 C         -4.9820068162       -1.7668981766       -0.8703199705
 H         -5.5321886948       -1.4403580513       -1.7399112559
 H         -5.3445355756       -1.3476498900        0.0573837161
 H         -4.4135976992       -3.6861225382        0.0872828441
 H         -4.5925439512       -3.7853831861       -1.7140672759
 H         -3.0531088860       -1.7939446651       -1.9633542181
 O         -1.1332063924       -0.1911730173       -1.9095995347
