  62
        -98.93943590
 C         -2.6905646709       -1.1955725873       -0.1150325135
 C         -2.7662202329       -0.0463025296       -0.9378890220
 C         -4.0896932691        0.5870697880       -1.0278900597
 C         -5.1281106343        0.0431686009       -0.3671918895
 C         -6.5147763705        0.6159052716       -0.3290619065
 C         -6.6896859760        1.5661432134        0.8639288724
 C         -5.5739093767        2.6027561975        0.9968772092
 H         -5.8177877628        3.2345875607        1.8537555123
 H         -4.6371376222        2.0918226159        1.2316993952
 C         -5.3723036975        3.4815587091       -0.2454753782
 H         -6.2570602616        3.4322837416       -0.8812540807
 H         -5.2605630219        4.5194758287        0.0750630637
 C         -4.1330937951        3.1358327619       -1.0734296028
 H         -3.9673958500        3.9444406858       -1.7902904528
 H         -3.2564181017        3.0919655737       -0.4218157627
 C         -4.2062285944        1.8265767928       -1.8693886742
 H         -5.1222274715        1.8066000004       -2.4632104498
 H         -3.3517756917        1.8053139341       -2.5520565133
 H         -6.7147442893        0.9710455209        1.7797975794
 H         -7.6504310242        2.0741663183        0.7627071676
 H         -6.7095612065        1.1447366589       -1.2599027275
 H         -7.2245930796       -0.2074151113       -0.2333866677
 O         -5.0203638459       -1.0779981442        0.3916690606
 C         -3.8004128992       -1.7141520754        0.5508104183
 O         -3.8324049631       -2.7138726234        1.2973250100
 H          1.2096083433       -1.3888738794       -0.8030424084
 C          0.9303657226       -0.8017874767        0.0584831644
 C         -0.3333662214       -0.9414038199        0.6085584984
 C         -0.6553369806       -0.1775713355        1.7274330955
 C          0.2540903482        0.7140789892        2.2619445186
 C          1.5083332628        0.8658577587        1.6958814189
 C          1.8467959609        0.0973883100        0.5918002668
 N          3.1203374689        0.2476780758       -0.0018605713
 S          4.4765043223       -0.1256581571        0.9346817993
 O          4.6100960209       -1.5624576581        1.0637161106
 O          4.4186577661        0.6185446583        2.1653319227
 C          5.7735499467        0.5150995380       -0.1052969760
 C          5.9516636966        1.8842350269       -0.1570249538
 C          6.9413901818        2.4000575192       -0.9779285296
 C          7.7313766245        1.5429612724       -1.7300833732
 C          7.5404848640        0.1711454401       -1.6674422962
 C          6.5511782306       -0.3511043341       -0.8487002037
 H          6.3726794908       -1.4110436346       -0.7635777592
 H          8.1573388850       -0.4925520701       -2.2518518154
 H          8.5019694197        1.9469398863       -2.3676287159
 H          7.0938656136        3.4661689911       -1.0288711861
 H          5.3190261806        2.5115706473        0.4488089766
 H          3.1843348378       -0.2819931426       -0.8624072601
 H          2.2270141607        1.5532919902        2.1095514049
 H         -0.0160365311        1.3025217161        3.1262972779
 H         -1.6357651593       -0.2922822604        2.1712384657
 C         -1.3610480293       -1.9050960094        0.0655535809
 H         -1.5299277289       -2.6825492492        0.8254124917
 C         -0.9503425591       -2.5736357641       -1.2300056356
 C         -0.0793353475       -3.7930343305       -1.2089305936
 C         -1.5298640135       -3.9135117338       -1.5656592156
 H         -1.7942014015       -4.1191457231       -2.5920332742
 H         -2.2017463209       -4.3562941041       -0.8447464712
 H          0.6512544735       -3.9205749196       -1.9938509739
 H          0.2401987845       -4.1637638684       -0.2463709392
 H         -0.8249097018       -1.8655983992       -2.0414166332
 O         -1.7824381746        0.4259530120       -1.5648629482
