  62
        -98.93585470
 C         -2.3377990138       -0.1138381160       -0.2641692258
 C         -3.3310728627        0.7809019597        0.2079381630
 C         -4.6114375714        0.1659539886        0.6000869426
 C         -4.7596304176       -1.1682285797        0.5300001298
 C         -6.0220140556       -1.9123837020        0.8541083417
 C         -6.9018218465       -2.0851224770       -0.3919914691
 C         -7.1179201916       -0.7929145757       -1.1796997341
 H         -6.1636865153       -0.4700564779       -1.6025805716
 H         -7.7766493365       -1.0295434952       -2.0181429604
 C         -7.7238339458        0.3558636228       -0.3613987820
 H         -8.1851841665       -0.0383059542        0.5446996665
 H         -8.5145767611        0.8257245171       -0.9500667740
 C         -6.7323745271        1.4587328767        0.0139409271
 H         -6.1996562940        1.7925217208       -0.8801181257
 H         -7.3008370997        2.3120670760        0.3931977042
 C         -5.6957934484        1.0887611594        1.0821596558
 H         -5.1902989483        2.0098570827        1.3866078725
 H         -6.2000723760        0.6681666504        1.9543608059
 H         -7.8667220416       -2.4888271098       -0.0799405554
 H         -6.4261704843       -2.8132842084       -1.0531307136
 H         -5.7505759037       -2.8980063646        1.2358062564
 H         -6.5679522167       -1.3721874306        1.6251082603
 O         -3.7723286311       -1.9985128076        0.1046148151
 C         -2.5525917163       -1.4939668124       -0.3101844455
 O         -1.7470384057       -2.3650041284       -0.6990268831
 H          1.5662311608       -0.5776558501       -0.7034815822
 C          1.3006787736       -0.0759014017        0.2157286703
 C          0.0228826895        0.4356469262        0.3849321646
 C         -0.2976411138        1.0501133426        1.5913699343
 C          0.6465375843        1.1532368371        2.5966536506
 C          1.9303948037        0.6714509519        2.4115849249
 C          2.2590358249        0.0523142460        1.2114844658
 N          3.5489164253       -0.4533447607        0.9872706902
 S          4.1784539671       -0.3072049560       -0.5749616588
 O          3.8115757983        0.9738203072       -1.1335811579
 O          3.7968554085       -1.4688918037       -1.3384266305
 C          5.9279386557       -0.3568939285       -0.2349094183
 C          6.5352883130       -1.5840853471       -0.0457998516
 C          7.8890533038       -1.6223825280        0.2479996289
 C          8.6084982197       -0.4405465615        0.3475736797
 C          7.9854783251        0.7830982725        0.1533024310
 C          6.6314217238        0.8290197503       -0.1393448243
 H          6.1065722072        1.7558043459       -0.3069030926
 H          8.5480386028        1.6997419296        0.2278188782
 H          9.6622494802       -0.4738628216        0.5750042623
 H          8.3776137335       -2.5717802032        0.3966804006
 H          5.9378679120       -2.4756880231       -0.1431790706
 H          4.2137409281       -0.1698595444        1.6940325369
 H          2.6703960621        0.7681065964        3.1914973835
 H          0.3842001820        1.6304849265        3.5289119928
 H         -1.2875439209        1.4581337973        1.7265330179
 C         -0.9699574317        0.3402915628       -0.7448046286
 H         -0.6185743797       -0.4606145857       -1.4165145012
 C         -1.0211921679        1.6207006842       -1.5694269605
 C         -0.5294818774        2.9449524999       -1.0774115837
 C          0.2401629295        2.2093539766       -2.1304534186
 H          0.2244997778        2.5867072473       -3.1422180219
 H          1.1814002727        1.7589911035       -1.8471979731
 H         -0.1125979054        2.9954597513       -0.0841323163
 H         -1.0925051603        3.8220999059       -1.3572165084
 H         -1.8930109045        1.6446862241       -2.2163416727
 O         -3.1797602672        2.0244242164        0.3091403696
