  62
        -98.94090895
 C         -2.3887887371       -1.2603912376        0.1366688249
 C         -2.2755607742        0.1493025264        0.0327751437
 C         -3.3942683623        0.9212101780        0.5965092722
 C         -4.4163333216        0.2907011650        1.2003905675
 C         -5.6156912764        0.9425612089        1.8331273103
 C         -6.7351642438        1.2872655103        0.8412618809
 C         -6.4423181624        2.4670173892       -0.0866209276
 H         -7.3833312211        2.7345467036       -0.5713064017
 H         -6.1264635289        3.3254134514        0.5071133736
 C         -5.3951793035        2.1760971491       -1.1707418818
 H         -5.2679481651        1.0959743653       -1.2739396743
 H         -5.7532381766        2.5489327659       -2.1330087683
 C         -4.0285090824        2.8135161073       -0.9188006265
 H         -4.1209542242        3.9016470344       -0.9431809252
 H         -3.3558424931        2.5167721783       -1.7279807330
 C         -3.3778067984        2.4086329205        0.4106239434
 H         -3.8820226908        2.9018579026        1.2414730714
 H         -2.3330592138        2.7303290773        0.3950724505
 H         -7.6260951894        1.5260451637        1.4265003493
 H         -6.9581557576        0.4003245797        0.2436906527
 H         -6.0083221862        0.2293105539        2.5610539226
 H         -5.3059131974        1.8441438950        2.3624068862
 O         -4.4632467860       -1.0619985732        1.3253910384
 C         -3.4663025046       -1.8629312268        0.7946385906
 O         -3.6462711422       -3.0833067873        0.9781508059
 O         -1.3098715514        0.7530787427       -0.5023321483
 C         -1.3284398917       -2.2086063768       -0.4007031966
 C          0.0359567384       -1.7663262521        0.0642606347
 C          0.4265181847       -2.0312052650        1.3732702865
 C          1.6550988416       -1.6053886735        1.8418303459
 C          2.5147982419       -0.8990714625        1.0186124670
 C          2.1241783905       -0.6106393660       -0.2817288818
 C          0.8991806519       -1.0608764773       -0.7575239924
 H          0.5984715795       -0.8192096290       -1.7650470951
 N          2.9826869610        0.1106382198       -1.1261824316
 S          3.8414552609        1.4156062378       -0.5188062432
 O          3.1503652961        2.0761189325        0.5637014886
 O          4.1507351101        2.2281362176       -1.6756474417
 C          5.3483585403        0.6760478431        0.0806512835
 C          5.7910936599        0.9547159515        1.3587955729
 C          6.9714870415        0.3777321201        1.8011632277
 C          7.6858021387       -0.4625710673        0.9612463531
 C          7.2298739402       -0.7297636751       -0.3210962177
 C          6.0514484616       -0.1550905933       -0.7694326121
 H          5.6654979570       -0.3352053934       -1.7587257859
 H          7.7880915232       -1.3837894148       -0.9714757124
 H          8.6029121955       -0.9117518855        1.3083310932
 H          7.3273536898        0.5854552868        2.7975501133
 H          5.1997878072        1.6095862679        1.9792708319
 H          2.5727224462        0.3357407198       -2.0211150009
 H          3.4676863189       -0.5512354447        1.3823867684
 H          1.9467885051       -1.8211168973        2.8585589119
 H         -0.2521910042       -2.5677090222        2.0224694220
 H         -1.5495938296       -3.1768379438        0.0758482047
 C         -1.3963326009       -2.4414704953       -1.9032623881
 C         -2.7224429688       -2.5952730056       -2.5849573517
 C         -1.8640231627       -1.4029088643       -2.8760048110
 H         -1.3741836940       -1.3485630523       -3.8377354983
 H         -2.1650120091       -0.4427064808       -2.4880589001
 H         -2.8282656639       -3.3545320998       -3.3449437763
 H         -3.6078948708       -2.4534609675       -1.9820759224
 H         -0.6011747188       -3.0989766508       -2.2417696144
