  62
        -98.93427354
 C         -2.4175281624       -1.3380150015        0.3132738407
 C         -2.5528977354       -0.3010584473       -0.6376280606
 C         -3.6163923879        0.6932324443       -0.3853017974
 C         -4.4049127026        0.5543094475        0.6948644637
 C         -5.5364734652        1.4338031335        1.1638007936
 C         -6.5175060632        1.9325623079        0.0917780438
 C         -6.3919483214        3.4291520081       -0.1991532725
 H         -7.3406259614        3.7868021980       -0.6056178193
 H         -6.2237543552        3.9532662523        0.7439578517
 C         -5.2929584012        3.8085420478       -1.1901862785
 H         -5.5883794096        3.4964929559       -2.1943134037
 H         -5.2171134448        4.8984419208       -1.1983342973
 C         -3.9116487720        3.2231733276       -0.8900959733
 H         -3.7042554135        3.2616027413        0.1786842796
 H         -3.1677305906        3.8539681486       -1.3813967100
 C         -3.7253962649        1.7897182073       -1.4099079850
 H         -4.5269660344        1.5396655064       -2.1108894821
 H         -2.7952200315        1.7253604023       -1.9829530846
 H         -6.3920902255        1.3560888988       -0.8233633887
 H         -7.5293360523        1.7449782282        0.4548089375
 H         -6.0704138115        0.8342210033        1.9045475828
 H         -5.1115757945        2.2850259806        1.7017501458
 O         -4.2435937989       -0.4694167990        1.5816645526
 C         -3.2546128053       -1.4193311341        1.4289326464
 O         -3.2253968301       -2.2792709243        2.3315760267
 H          0.4126135675       -1.0798659592       -1.4225312478
 C          0.7676403089       -1.1478773127       -0.4061411595
 C         -0.0049085470       -1.7938098339        0.5471944682
 C          0.4585257561       -1.8417821964        1.8584579006
 C          1.6630002772       -1.2563562113        2.2025967432
 C          2.4256929134       -0.6026312190        1.2505459187
 C          1.9699137053       -0.5445576450       -0.0594774331
 N          2.7169377950        0.1470253190       -1.0260484509
 S          4.3662819836       -0.1226685799       -1.1380002904
 O          4.7180430019        0.2287042893       -2.4964768822
 O          4.7160111409       -1.4571943968       -0.7091893838
 C          5.0731370213        1.0786525701       -0.0293312770
 C          5.9364176265        0.6718299991        0.9689806428
 C          6.4821888783        1.6261389487        1.8135473067
 C          6.1579610011        2.9634736137        1.6447081639
 C          5.2914530963        3.3561703064        0.6353212324
 C          4.7433661612        2.4072314927       -0.2127050470
 H          4.0691530747        2.6718590259       -1.0102775881
 H          5.0412553275        4.3970737406        0.5070732868
 H          6.5825738750        3.7043104147        2.3036612824
 H          7.1562030624        1.3228983032        2.5985659154
 H          6.1562173654       -0.3795539939        1.0659354441
 H          2.2805479562        0.1725480957       -1.9359392677
 H          3.3633372560       -0.1406453288        1.5130925700
 H          2.0107998994       -1.3053207222        3.2232978939
 H         -0.1444974504       -2.3355745347        2.6076031524
 C         -1.3412964738       -2.4079568480        0.2043961927
 H         -1.5790303737       -3.1451448356        0.9827053519
 C         -1.3497713111       -3.1093872127       -1.1385600487
 C         -0.6053798702       -4.4011091335       -1.2868365895
 C         -2.1039536260       -4.3948173164       -1.2878759327
 H         -2.6204490109       -4.5837219913       -2.2170785044
 H         -2.6170093904       -4.7784319171       -0.4179557594
 H         -0.0895465821       -4.5970382280       -2.2145512365
 H         -0.0999141863       -4.7876130545       -0.4145521617
 H         -1.3608324803       -2.4330135406       -1.9831180549
 O         -1.8289869699       -0.1884369148       -1.6629271362
