  62
        -98.95136544
 C         -1.8222817410       -1.2558645014       -0.2864336947
 C         -2.9121765559       -0.5724957967        0.2998101956
 C         -3.2279242013        0.7381143483       -0.2766350871
 C         -2.5036284807        1.2053070879       -1.3100491306
 C         -2.6898820319        2.5329483922       -1.9919502999
 C         -1.9746379481        3.6852650762       -1.2728099246
 C         -2.6467766049        4.1580970009        0.0169229426
 H         -2.1888980562        5.1124698577        0.2849231552
 H         -3.7059549041        4.3429556824       -0.1685720652
 C         -2.4864884003        3.1910304284        1.1983543795
 H         -2.2115027189        3.7546772256        2.0937180189
 H         -1.6585638178        2.5065872232        0.9949227454
 C         -3.7423794830        2.3875428858        1.5391501289
 H         -3.4978387187        1.7056208370        2.3579198866
 H         -4.5252928507        3.0653681993        1.8881467606
 C         -4.3013540270        1.5535971246        0.3789927371
 H         -5.0446839958        0.8616161163        0.7834031018
 H         -4.7864085292        2.2019713192       -0.3503097684
 H         -1.9271157771        4.5284796558       -1.9662647666
 H         -0.9508379340        3.3736781033       -1.0484995444
 H         -2.2644201018        2.4327677397       -2.9927761428
 H         -3.7525488486        2.7592929341       -2.0846880104
 O         -1.4950445362        0.4959460743       -1.8778859935
 C         -1.0959293629       -0.7189307319       -1.3485710568
 O         -0.1070446623       -1.2266878180       -1.9143087387
 H         -0.2280156567       -0.4264237123        1.4662875661
 C          0.4900026702       -1.2210083539        1.3240440927
 C          0.0901960487       -2.4230508919        0.7539273328
 C          1.0378911042       -3.4278384666        0.6032790612
 C          2.3526119168       -3.2173741900        0.9836546486
 C          2.7566934828       -1.9967222412        1.4930343807
 C          1.8130571582       -0.9900191774        1.6581231701
 N          2.1647806365        0.2942888919        2.1298203881
 S          2.0282426654        1.5321127611        1.0015788899
 O          2.5044546718        2.7177777034        1.6822408201
 O          0.6852654061        1.5879008365        0.4889969127
 C          3.1947569466        1.0721468908       -0.2671079613
 C          2.8305277581        0.1506898123       -1.2281014627
 C          3.7852358123       -0.2631415377       -2.1456917611
 C          5.0742108040        0.2428054425       -2.0862420866
 C          5.4222639770        1.1689509235       -1.1139970109
 C          4.4766533108        1.5839381928       -0.1911947091
 H          4.6983795851        2.3032519820        0.5808488634
 H          6.4243818992        1.5641889318       -1.0706281824
 H          5.8103716685       -0.0862851205       -2.8026367423
 H          3.5060395617       -0.9828309163       -2.8984784685
 H          1.8202971651       -0.2283411915       -1.2635821698
 H          3.0874691997        0.3347968893        2.5423187753
 H          3.7886948466       -1.8202945772        1.7568590311
 H          3.0769556454       -4.0075957269        0.8588812013
 H          0.7480491634       -4.3750182721        0.1783910546
 C         -1.3495507161       -2.5634056357        0.3217748892
 H         -1.9717855384       -2.7150716045        1.2168975812
 C         -1.5783649426       -3.7163523228       -0.6336769564
 C         -1.8756979033       -5.0894478274       -0.1109501518
 C         -2.9588322172       -4.2847097537       -0.7619947572
 H         -3.3066803280       -4.5785757307       -1.7408653882
 H         -3.7285297174       -3.8571771685       -0.1360277976
 H         -1.4823341020       -5.9411128895       -0.6452505333
 H         -1.9180956270       -5.2192071638        0.9599168903
 H         -0.9876972969       -3.6267859653       -1.5385341475
 O         -3.5808761748       -1.0323549903        1.2661958547
