  62
        -98.93977210
 C         -0.7648952307       -1.9023714393        0.3749539221
 C         -1.3529888497       -0.8001438185        1.0370046017
 C         -2.6579833794       -0.3318654078        0.5311025417
 C         -3.1967300101       -0.9513885179       -0.5355278179
 C         -4.4768638000       -0.6252282773       -1.2582972779
 C         -4.3453032892        0.6148566321       -2.1551143985
 C         -3.6629939981        1.8098486219       -1.4950290893
 H         -2.6553228383        1.5244396813       -1.1876436593
 H         -3.5643727477        2.5913618015       -2.2528423797
 C         -4.4102715575        2.4035213331       -0.3033937894
 H         -5.4196723273        2.6803004238       -0.6154468494
 H         -3.8886586467        3.3199781229       -0.0198949200
 C         -4.5113619279        1.5120241639        0.9375184210
 H         -5.3070505585        0.7787906844        0.8331957416
 H         -4.7932786673        2.1535512345        1.7773739208
 C         -3.2125639684        0.8181922731        1.3361713212
 H         -2.4074933478        1.5583717325        1.3943429606
 H         -3.3239177685        0.4319658537        2.3565567714
 H         -5.3428849690        0.9014655227       -2.4928955085
 H         -3.7585195995        0.3361016312       -3.0339260485
 H         -5.2901370197       -0.5041539963       -0.5493336478
 H         -4.7090321307       -1.4871015975       -1.8878933374
 O         -2.5781060310       -1.9943165087       -1.1600000675
 C         -1.3587850413       -2.4918550594       -0.7403899774
 O         -0.9289310622       -3.4376673201       -1.4276173570
 O         -0.8113759091       -0.2192161884        2.0165638113
 C          0.5903573791       -2.3968101801        0.8522887222
 C          1.6138077592       -2.0118360314       -0.1867182682
 C          2.2640705983       -2.9237483124       -1.0069264879
 C          3.1461537785       -2.4814655336       -1.9778063283
 C          3.4108282495       -1.1335646138       -2.1351569490
 C          2.7697961903       -0.2127616529       -1.3132249794
 C          1.8740542302       -0.6563988817       -0.3551963790
 H          1.3698494508        0.0602564090        0.2777866207
 N          3.0033151314        1.1651733368       -1.4459790301
 S          3.1781189223        2.0920567074       -0.0615237107
 O          3.9337889932        3.2489160466       -0.4973600614
 O          3.7642508320        1.3281466575        1.0152053796
 C          1.5388244728        2.6326570089        0.3674041094
 C          0.7118009830        3.1066562990       -0.6315835607
 C         -0.5278918265        3.6183466902       -0.2849707808
 C         -0.9128595662        3.6545997511        1.0470121793
 C         -0.0750662164        3.1654674910        2.0367893994
 C          1.1641489331        2.6493597999        1.6955767294
 H          1.8425621229        2.2514536997        2.4333283795
 H         -0.3826589563        3.1768006518        3.0700173194
 H         -1.8718565859        4.0686828620        1.3178505892
 H         -1.1889168764        3.9891554703       -1.0520126109
 H          1.0474539828        3.0677135882       -1.6547625808
 H          3.6900391614        1.4121296459       -2.1442024604
 H          4.1049379496       -0.7922791348       -2.8883883593
 H          3.6397475778       -3.1982328143       -2.6166436880
 H          2.0685292275       -3.9774055322       -0.8973353773
 H          0.8067300697       -1.8221461598        1.7643466518
 C          0.5726669480       -3.8696462199        1.1955798429
 C          1.6556892677       -4.4363495803        2.0626595430
 C          0.2656160479       -4.2861514889        2.6015865432
 H         -0.3266337227       -5.1752975284        2.7575801738
 H          0.0789619786       -3.5050931284        3.3241866628
 H          2.0199200469       -5.4301788107        1.8515323135
 H          2.4147185583       -3.7558472107        2.4187937925
 H          0.1802674574       -4.4886682800        0.3978897033
