  62
        -98.94067725
 C          0.2476463949        1.7050190692       -0.0340292911
 C          1.2771712092        1.6004009396        0.9262690099
 C          2.4629481037        0.8131512518        0.5411963467
 C          2.4881486750        0.2224914108       -0.6673856825
 C          3.6104548225       -0.5542820627       -1.3085533511
 C          4.3047703114       -1.6119536601       -0.4365047473
 C          5.7353147359       -1.2337885556       -0.0477199815
 H          6.2883488632       -2.1474130114        0.1816869898
 H          6.2180736518       -0.7681356306       -0.9093513810
 C          5.8579787976       -0.3071806523        1.1604584485
 H          5.6013276425       -0.8594536778        2.0673083869
 H          6.9067625784       -0.0129319529        1.2459860214
 C          4.9980936785        0.9573499206        1.1080939744
 H          5.4524215685        1.6966573844        1.7712815381
 H          5.0042568125        1.3842126100        0.1059564027
 C          3.5512666382        0.7390695172        1.5773999526
 H          3.2855871988        1.5064353625        2.3115842312
 H          3.4682419975       -0.2172784174        2.1030988238
 H          3.7091110919       -1.8079091596        0.4542105456
 H          4.3528006049       -2.5408829426       -1.0073117855
 H          4.3507043378        0.1595995041       -1.6781283734
 H          3.1649187910       -1.0237692044       -2.1873024576
 O          1.4433556453        0.3021588076       -1.5393866079
 C          0.3031105302        1.0321293973       -1.2534155355
 O         -0.5645075831        1.0068264008       -2.1450710235
 O          1.2201568558        2.1608054859        2.0561862977
 C         -0.9656235010        2.5622512551        0.2700678255
 C         -2.2366125400        1.7581857653        0.1665477455
 C         -3.3989372102        2.2485085443       -0.4157840851
 C         -4.5391023718        1.4660786547       -0.4707143854
 C         -4.5440920348        0.1832611873        0.0441708662
 C         -3.3875590084       -0.3131449279        0.6368634637
 C         -2.2515434195        0.4766900512        0.7024695459
 H         -1.3625186346        0.0851203284        1.1758599892
 N         -3.3628319352       -1.6077726517        1.1745757176
 S         -1.9614275467       -2.4920299704        1.2879767018
 O         -2.4218989967       -3.8485244562        1.5068497589
 O         -1.1061096765       -1.9586757908        2.3207174387
 C         -1.1172450235       -2.4328588674       -0.2837920406
 C          0.2201238936       -2.7754321663       -0.2725955909
 C          0.9074158984       -2.8524486007       -1.4715843314
 C          0.2531527461       -2.5666033375       -2.6591372715
 C         -1.0857582884       -2.2137113057       -2.6543420518
 C         -1.7852286713       -2.1586175991       -1.4590921058
 H         -2.8278070591       -1.8864045268       -1.4449281093
 H         -1.5899334229       -1.9750102441       -3.5765569727
 H          0.7910482505       -2.6120908482       -3.5930179739
 H          1.9484668296       -3.1315338520       -1.4714372705
 H          0.6952343692       -2.9691060155        0.6765340388
 H         -4.1668014654       -2.1840619612        0.9759948628
 H         -5.4301073092       -0.4308126642       -0.0068926280
 H         -5.4344628183        1.8580016704       -0.9284834449
 H         -3.4118202743        3.2429042419       -0.8302469525
 H         -0.8471900357        2.8779377867        1.3179819557
 C         -0.9592128974        3.7940246219       -0.6133582258
 C         -1.5317310810        5.0881683379       -0.1195048975
 C         -0.0484874761        4.9303472304       -0.2604977275
 H          0.4554087554        5.4554702078       -1.0579904645
 H          0.5446908710        4.8271282030        0.6365687049
 H         -2.0455296111        5.7269052605       -0.8221049198
 H         -1.9454448409        5.1043093159        0.8775235007
 H         -1.0702605573        3.5499674368       -1.6640890710
