  62
        -98.94122587
 C          2.6843409241        0.3848307605        0.0274792245
 C          2.1473890557       -0.4432542501       -0.9911889500
 C          2.2523823501       -1.8945143292       -0.7601220837
 C          2.8386603678       -2.3508518181        0.3601121516
 C          2.9746831671       -3.7971134502        0.7375749816
 C          1.7869736640       -4.2689321259        1.5867153826
 C          0.4215168851       -3.9186835047        0.9946789391
 H         -0.3372659825       -4.3485246123        1.6524100759
 H          0.2791805577       -2.8352022224        1.0115104963
 C          0.2010179450       -4.4246691309       -0.4373090283
 H          0.9172809766       -5.2144872790       -0.6693062207
 H         -0.7982912407       -4.8596080073       -0.5038269969
 C          0.2799162545       -3.3330567416       -1.5066915205
 H         -0.3510277417       -2.4901691051       -1.2114283157
 H         -0.1273336620       -3.7363091993       -2.4385559587
 C          1.6863732856       -2.8026462480       -1.8153501038
 H          2.3626536233       -3.6394085523       -2.0067216365
 H          1.6197827193       -2.1985166969       -2.7253428041
 H          1.8626640491       -5.3509748807        1.7109841051
 H          1.8613957503       -3.8061959037        2.5734512270
 H          3.0490722260       -4.3966459905       -0.1675955464
 H          3.8924528233       -3.9133649231        1.3168862601
 O          3.3544576749       -1.5281922370        1.3092773470
 C          3.2734942602       -0.1540313830        1.1740432989
 O          3.7723838408        0.4807982959        2.1269378799
 H          0.1395686181        0.7838685165       -0.0622918178
 C          0.1505960403        1.7479793974        0.4206009836
 C          1.3387091419        2.4516341253        0.5397735573
 C          1.3165870194        3.6967447686        1.1599117290
 C          0.1312513285        4.2237232159        1.6381724449
 C         -1.0528878950        3.5204657619        1.5121869800
 C         -1.0403400785        2.2679214152        0.9076059498
 N         -2.2185897074        1.5107661823        0.8260258998
 S         -2.3878298002        0.3117249793       -0.3468385813
 O         -1.6214348436       -0.8391127248        0.0553327817
 O         -2.1297582256        0.8552037874       -1.6606960243
 C         -4.1292384478       -0.0298653754       -0.1714065137
 C         -5.0308901623        0.6859286560       -0.9367294445
 C         -6.3864940314        0.4468084780       -0.7766791043
 C         -6.8159413645       -0.4985235603        0.1428025927
 C         -5.8996558902       -1.2114652824        0.9014634371
 C         -4.5424257161       -0.9767111390        0.7459114650
 H         -3.7926131824       -1.5106144750        1.3064574726
 H         -6.2369590245       -1.9486566073        1.6120661375
 H         -7.8713426649       -0.6830730005        0.2662541056
 H         -7.1006105352        0.9966144788       -1.3682953931
 H         -4.6498736117        1.4011218189       -1.6480779725
 H         -3.0585439487        2.0621808446        0.9322052944
 H         -1.9783740606        3.9286382402        1.8881774589
 H          0.1277484145        5.1920013665        2.1150015377
 H          2.2379334004        4.2476469672        1.2716156371
 C          2.6365067199        1.9016186633       -0.0102049727
 H          3.4447090975        2.2417301606        0.6538435892
 C          2.8797677783        2.4811236834       -1.3921182843
 C          3.5813820320        3.7964423278       -1.5383561954
 C          4.2745817464        2.5287977344       -1.9362152473
 H          4.4232097385        2.3200140577       -2.9847590121
 H          5.0674240449        2.1602715033       -1.3011868461
 H          3.2516476943        4.4685164702       -2.3156210838
 H          3.9213088572        4.2917322557       -0.6417658381
 H          2.0840799855        2.2534423846       -2.0904521311
 O          1.6142233312       -0.0195052921       -2.0509826585
