  62
        -98.94024358
 C         -2.4796543456       -1.1037987279        0.0710750683
 C         -2.7012701235       -0.0253936410       -0.8187396348
 C         -4.1030200176        0.3860204144       -0.9852505130
 C         -5.0689035667       -0.2783274956       -0.3245748036
 C         -6.5282628711        0.0702594225       -0.3600860579
 C         -6.8930695915        1.0451014687        0.7684272691
 C         -5.9589128835        2.2510277925        0.8689554866
 H         -6.3301071549        2.8831492532        1.6785572215
 H         -4.9632311277        1.9081804833        1.1597943726
 C         -5.8512723937        3.0798101456       -0.4186298413
 H         -6.6919337713        2.8544009362       -1.0757549050
 H         -5.9166117710        4.1386415296       -0.1597418567
 C         -4.5424064728        2.8898991349       -1.1876954498
 H         -4.4779213521        3.6728785787       -1.9479526030
 H         -3.6948460763        3.0215582741       -0.5100807358
 C         -4.3790922640        1.5431130678       -1.9035773269
 H         -3.5060200371        1.6186813168       -2.5584024333
 H         -5.2569516124        1.3451285674       -2.5219130192
 H         -7.9172130850        1.3879326701        0.6106951483
 H         -6.8575800942        0.5047124848        1.7171885478
 H         -6.7678483016        0.5097121301       -1.3262766831
 H         -7.1040191855       -0.8482928140       -0.2352823313
 O         -4.8172113177       -1.3259202476        0.5022238333
 C         -3.5207464169       -1.7554963203        0.7312161784
 O         -3.4266569968       -2.7080644738        1.5320633470
 O         -1.7793319227        0.5653624193       -1.4398551140
 C         -1.0663590256       -1.5943210197        0.3232579599
 C         -0.1930585971       -0.4657679987        0.8159492107
 C         -0.6670474581        0.3651368979        1.8285130196
 C          0.1086152811        1.3982425030        2.3165774324
 C          1.3826040040        1.6142663188        1.8208803618
 C          1.8674203993        0.7884994684        0.8145498998
 C          1.0802989609       -0.2420894383        0.3182085969
 H          1.4843456878       -0.8655742871       -0.4614731455
 N          3.1485006100        0.9908231574        0.2760728768
 S          4.0507892346       -0.3633418501       -0.1753367527
 O          3.6725405722       -0.7600178392       -1.5079455000
 O          3.9576591436       -1.3816806461        0.8465361876
 C          5.6908681933        0.3377790726       -0.2000815110
 C          6.4995172818        0.2067697566        0.9132599316
 C          7.7615245006        0.7795767640        0.8965961339
 C          8.1903461992        1.4720774889       -0.2258095088
 C          7.3678471936        1.5945892315       -1.3359692568
 C          6.1051948992        1.0234913933       -1.3263465817
 H          5.4350921692        1.0846183790       -2.1680841490
 H          7.7057154104        2.1312179658       -2.2078085579
 H          9.1730202159        1.9165142844       -0.2366616788
 H          8.4045524667        0.6829740224        1.7565405798
 H          6.1279431648       -0.3491126481        1.7590868236
 H          3.7013592588        1.6454581880        0.8123679918
 H          1.9912159643        2.4187622776        2.2050325014
 H         -0.2772678046        2.0365804258        3.0974088686
 H         -1.6583083822        0.1889561524        2.2252224267
 H         -1.1397665838       -2.3408884492        1.1288300154
 C         -0.5240044734       -2.2739796231       -0.9169247332
 C          0.5033437842       -3.3578685658       -0.7974024991
 C         -0.9013684755       -3.6967211061       -1.1945526845
 H         -1.0929827422       -3.9898742325       -2.2157909282
 H         -1.5331817440       -4.1908464778       -0.4705934222
 H          1.2826662959       -3.4120158860       -1.5433932806
 H          0.8334906191       -3.6269870700        0.1950899950
 H         -0.4549348767       -1.5997911076       -1.7637550438
