  62
        -98.95138365
 C         -1.8137044581       -1.2685550101       -0.2863785557
 C         -2.9100867289       -0.5962500256        0.3005914253
 C         -3.2393351969        0.7112004265       -0.2754081823
 C         -2.5210849625        1.1853524569       -1.3099008771
 C         -2.7213228201        2.5112023969       -1.9913572770
 C         -2.0167349111        3.6706712572       -1.2731442816
 C         -2.6913390276        4.1360911533        0.0179932475
 H         -2.2434530960        5.0953751794        0.2852851007
 H         -3.7528510585        4.3093317288       -0.1653170307
 C         -2.5180827314        3.1703847016        1.1986912310
 H         -2.2460363714        3.7363749698        2.0934556736
 H         -1.6841216587        2.4940554589        0.9926070627
 C         -3.7654139603        2.3547747534        1.5421433433
 H         -3.5125904455        1.6747790087        2.3600205970
 H         -4.5539495504        3.0249182692        1.8933035961
 C         -4.3190679077        1.5163483021        0.3826404482
 H         -5.0550850395        0.8172505371        0.7881586634
 H         -4.8115857814        2.1606451545       -0.3452769604
 H         -1.9794513754        4.5144752892       -1.9664990322
 H         -0.9892548272        3.3699361208       -1.0509291310
 H         -2.2962605029        2.4155333784       -2.9927834354
 H         -3.7863308961        2.7269484790       -2.0826118651
 O         -1.5067917018        0.4854975150       -1.8794206036
 C         -1.0943311357       -0.7248733084       -1.3498691998
 O         -0.1009186645       -1.2227648339       -1.9164017468
 H         -0.2269704353       -0.4139079785        1.4555595903
 C          0.4979163583       -1.2038485577        1.3227322863
 C          0.1105047489       -2.4131247300        0.7594421794
 C          1.0670926532       -3.4112058404        0.6203704860
 C          2.3779834505       -3.1877812276        1.0065195013
 C          2.7695212755       -1.9606736522        1.5101548170
 C          1.8171614733       -0.9602770361        1.6628194715
 N          2.1563554847        0.3300681708        2.1276377412
 S          2.0194816997        1.5564286802        0.9869701946
 O          2.4895118921        2.7503626199        1.6574274882
 O          0.6778099892        1.6025671427        0.4698974239
 C          3.1918628642        1.0874219546       -0.2730499084
 C          2.8332134320        0.1579471441       -1.2283837014
 C          3.7928724841       -0.2624850895       -2.1378231656
 C          5.0813744727        0.2442663764       -2.0755596904
 C          5.4238368845        1.1784597279       -1.1090295873
 C          4.4732088921        1.6002779355       -0.1945392245
 H          4.6907170824        2.3258166613        0.5728508512
 H          6.4255305406        1.5745138340       -1.0634385692
 H          5.8214386628       -0.0901612569       -2.7854420918
 H          3.5179049995       -0.9883143038       -2.8862549957
 H          1.8234424690       -0.2220986667       -1.2661597293
 H          3.0759187834        0.3796607838        2.5461935061
 H          3.7985215663       -1.7743349688        1.7788858424
 H          3.1092309010       -3.9730506710        0.8912493777
 H          0.7871095042       -4.3636472355        0.2005784223
 C         -1.3264366298       -2.5698897104        0.3233779822
 H         -1.9488866119       -2.7284459682        1.2171910598
 C         -1.5392509925       -3.7264291066       -0.6314534312
 C         -1.8250412529       -5.1016080146       -0.1078492235
 C         -2.9133625916       -4.3088638676       -0.7649654741
 H         -3.2539595841       -4.6077305770       -1.7448653885
 H         -3.6900115451       -3.8880548717       -0.1430334944
 H         -1.8709429194       -5.2302995486        0.9630162892
 H         -1.4205440954       -5.9499088578       -0.6391764538
 H         -0.9454712614       -3.6322503449       -1.5337759998
 O         -3.5731825890       -1.0626902859        1.2676894971
