  62
        -98.92824173
 C          2.2184499197        1.1226386700       -0.5149847819
 C          3.2909110499        0.9561786305        0.3968251480
 C          4.1057184602       -0.2653740294        0.2691172883
 C          3.7829414002       -1.1635384098       -0.6781974013
 C          4.4531249304       -2.4725890097       -1.0105732010
 C          4.8499816309       -3.3629441492        0.1771538293
 C          6.3612676609       -3.4424110288        0.3994592590
 H          6.5880321612       -4.3701891886        0.9294409493
 H          6.8535938107       -3.4948595691       -0.5738398711
 C          6.9602692908       -2.2921867084        1.2069418785
 H          6.6580442310       -2.3886705381        2.2520214786
 H          8.0474006808       -2.3953817982        1.1726109783
 C          6.5858155104       -0.8890927686        0.7249162880
 H          7.3533103303       -0.1984606184        1.0806872577
 H          6.5972232402       -0.8429249490       -0.3634612720
 C          5.2321874204       -0.3955892888        1.2574321081
 H          5.3461323003        0.6083639614        1.6780807377
 H          4.9023684107       -1.0304866285        2.0849516884
 H          4.3514189709       -3.0179136690        1.0817118692
 H          4.4867642510       -4.3714231594       -0.0272507703
 H          5.3306855703       -2.2652906498       -1.6279674212
 H          3.7415794904       -3.0006636901       -1.6493833807
 O          2.7393674100       -0.9671550703       -1.5319612612
 C          1.9315889098        0.1589167395       -1.4807079615
 O          1.0214993196        0.1547597790       -2.3315232513
 O          3.5655441199        1.8081688509        1.2844082576
 C          1.3995459495        2.3938958498       -0.3768770422
 C          0.1840139197        2.1699105499        0.4859241081
 C         -0.0995680403        3.0059512802        1.5587190879
 C         -1.2271876601        2.7972160602        2.3344617782
 C         -2.0916291799        1.7527405699        2.0597837587
 C         -1.8166230999        0.9114598596        0.9890963990
 C         -0.6869287401        1.1241673496        0.2123803587
 H         -0.4810114401        0.4729152093       -0.6250829111
 N         -2.6782754297       -0.1724120207        0.7006593595
 S         -4.2723386099        0.2357305188        0.3072378797
 O         -4.3006426403        1.0327674784       -0.9007852406
 O         -4.8927406698        0.8252104891        1.4658440096
 C         -4.9578838196       -1.3791497914        0.0049990004
 C         -5.0815985398       -1.8353650619       -1.2928704794
 C         -5.5855765895       -3.1083614321       -1.5099098889
 C         -5.9505528691       -3.8992152718       -0.4309847585
 C         -5.8195193490       -3.4267024713        0.8665870713
 C         -5.3179608392       -2.1546680611        1.0903436907
 H         -5.2051345591       -1.7425123507        2.0792911506
 H         -6.1057991887       -4.0445960811        1.7022889415
 H         -6.3414797290       -4.8895737120       -0.6032892681
 H         -5.6903129596       -3.4772146725       -2.5176244687
 H         -4.7907648101       -1.1842117621       -2.1019459697
 H         -2.3039424398       -0.7254604609       -0.0612119304
 H         -2.9788432198        1.5886910099        2.6486420589
 H         -1.4351709501        3.4542377705        3.1653640680
 H          0.5753589496        3.8175188104        1.7887056975
 H          2.0599707594        3.0921797602        0.1610965675
 C          1.0606473991        3.0341860493       -1.7167595023
 C         -0.3205200110        3.0983161988       -2.2900972421
 C          0.3251045288        4.3409987791       -1.7593750227
 H          0.6496319485        5.0976786389       -2.4572980530
 H         -0.0464530811        4.7309759693       -0.8235234127
 H         -0.4220247812        2.9783401384       -3.3581164820
 H         -1.1377757508        2.6674333688       -1.7319573118
 H          1.8648417690        2.9083301992       -2.4350439024
