  62
        -98.94873699
 C         -1.9107993405       -1.0894579917       -0.2352733758
 C         -0.9643265792       -1.7220752031       -1.0740921072
 C         -0.0574796314       -2.6682632438       -0.4182646767
 C         -0.1559293962       -2.8740989337        0.9078177992
 C          0.6881658856       -3.8190709061        1.7196762284
 C          2.0411159896       -3.2307289976        2.1426392198
 C          3.0801221828       -3.1284218790        1.0253277863
 H          4.0439477379       -2.9388775753        1.5019315711
 H          3.1536295411       -4.0853642620        0.5071521305
 C          2.8046367907       -2.0066907701        0.0143682082
 H          2.1018560735       -1.2915245757        0.4502505289
 H          3.7299151665       -1.4598407472       -0.1807245074
 C          2.2708692946       -2.4788515993       -1.3380369098
 H          2.0539709273       -1.5948438804       -1.9435134345
 H          3.0403998836       -3.0599617236       -1.8512452106
 C          0.9958930858       -3.3273521033       -1.2574313016
 H          0.5928784708       -3.4344357059       -2.2677299954
 H          1.2273764820       -4.3176486264       -0.8656411975
 H          1.8707243361       -2.2383355090        2.5687396367
 H          2.4440222222       -3.8703032778        2.9318858140
 H          0.1155733063       -4.0502277182        2.6206016727
 H          0.8480935611       -4.7427414317        1.1620125475
 O         -1.0802125447       -2.2464238165        1.6815266744
 C         -1.9493746617       -1.3118025457        1.1413506773
 O         -2.7096002998       -0.7755258640        1.9717086124
 O         -0.8821252829       -1.5040718162       -2.3140531070
 C         -2.8386150783       -0.0475306802       -0.8326804488
 C         -2.5365002659        1.2990395838       -0.2212600457
 C         -3.5127275367        2.2123975537        0.1526397051
 C         -3.1541115485        3.4139532677        0.7404884255
 C         -1.8274599450        3.7226170347        0.9753804921
 C         -0.8405922027        2.8213171570        0.5878946186
 C         -1.2020964635        1.6359105150       -0.0284447042
 H         -0.4374707057        0.9286358003       -0.3140435902
 N          0.5167956409        3.1145831179        0.7873878138
 S          1.6684746286        1.9464743092        1.1164270272
 O          1.0792603574        0.7019762342        1.5521925816
 O          2.5821050165        2.5727306116        2.0503447651
 C          2.5327320527        1.7082316352       -0.4262826235
 C          1.9094299927        1.9203870939       -1.6389219754
 C          2.6211613950        1.6900465077       -2.8068837853
 C          3.9366836592        1.2588806481       -2.7462347209
 C          4.5539158665        1.0627438825       -1.5206162605
 C          3.8468636042        1.2875712354       -0.3505674051
 H          4.2876837272        1.1531337459        0.6241503594
 H          5.5796328286        0.7339273391       -1.4726500214
 H          4.4832926156        1.0781789453       -3.6582157223
 H          2.1403984684        1.8462077430       -3.7593651796
 H          0.8870225164        2.2597378775       -1.6682721661
 H          0.6977732304        3.9552065572        1.3151900785
 H         -1.5523744346        4.6485933031        1.4570397520
 H         -3.9214414387        4.1135549166        1.0355911807
 H         -4.5534789279        1.9789818194       -0.0013972830
 H         -2.5818164550       -0.0070707657       -1.9023893100
 C         -4.2874155030       -0.4637135061       -0.6944552212
 C         -5.2990311726       -0.0356081765       -1.7143999953
 C         -4.8476212507       -1.4631745337       -1.6603468484
 H         -5.5326965610       -2.2103803887       -1.2890457236
 H         -4.1889106149       -1.8230014024       -2.4372338805
 H         -6.2996529235        0.1962755641       -1.3819170720
 H         -4.9537984231        0.5724383202       -2.5367762725
 H         -4.5998204474       -0.5383532636        0.3411603555
