  62
        -98.94043904
 C         -2.5176169592       -1.2730078913        0.1078095601
 C         -3.4090061694       -0.6674488912        1.0327358599
 C         -4.3948804296        0.2685607083        0.4791163397
 C         -4.4186287298        0.4841701179       -0.8482942804
 C         -5.3306474600        1.4502726574       -1.5459328807
 C         -4.6798152104        2.8350783875       -1.6703415012
 C         -4.0885193505        3.3597330881       -0.3616870714
 H         -3.2467648403        2.7265485384       -0.0711717112
 H         -3.6865106208        4.3550502082       -0.5630925418
 C         -5.0881662904        3.4375429783        0.8008021986
 H         -4.9614399107        4.3966309885        1.3072522183
 H         -6.1077924505        3.4073223179        0.4150797987
 C         -4.9147874301        2.3481754087        1.8609518790
 H         -5.5159512901        2.6227777088        2.7317069989
 H         -3.8707170001        2.3120942990        2.1821893789
 C         -5.3378481298        0.9348886284        1.4407727395
 H         -5.3425624396        0.3085577687        2.3375211297
 H         -6.3503853298        0.9592427680        1.0328912695
 H         -5.4295871806        3.5366729772       -2.0404000914
 H         -3.8770187604        2.7750492875       -2.4090977712
 H         -6.2644599100        1.5242239773       -0.9920494907
 H         -5.5405203900        1.0656022370       -2.5454349506
 O         -3.5670086296       -0.1278322922       -1.7078544702
 C         -2.5859273394       -1.0056771918       -1.2598791700
 O         -1.8697927593       -1.4538370319       -2.1758837099
 O         -3.3819618292       -0.9078445308        2.2690829500
 C         -1.4956090190       -2.2354508408        0.6865927604
 C         -0.1776658491       -1.5554473704        0.9566427101
 C          0.4694566410       -1.7085198398        2.1770212701
 C          1.6947892208       -1.1062891494        2.4048334498
 C          2.2974069306       -0.3399627896        1.4234721395
 C          1.6574421205       -0.1775889302        0.2015860095
 C          0.4296559906       -0.7823566506       -0.0234440102
 H         -0.0560243695       -0.6650988310       -0.9815812002
 N          2.2630393902        0.6048573296       -0.8020621208
 S          3.7891287603        0.1080859799       -1.3105230407
 O          3.9405285701        0.6371506794       -2.6480628209
 O          3.9519570707       -1.3198267500       -1.1601297002
 C          4.9011982302        0.9665547305       -0.2167677110
 C          5.8081308304        0.2522733310        0.5414693292
 C          6.6688482002        0.9419468615        1.3813732789
 C          6.6079170499        2.3255709215        1.4468156384
 C          5.6929622697        3.0280960710        0.6764200082
 C          4.8305284198        2.3450839205       -0.1662303915
 H          4.1076821196        2.8518803001       -0.7836665816
 H          5.6486263894        4.1039789910        0.7301408979
 H          7.2774648098        2.8599951319        2.1021230782
 H          7.3810137704        0.3977795319        1.9806010490
 H          5.8136023407       -0.8229950490        0.4616114695
 H          1.6662435501        0.7371256592       -1.6071347508
 H          3.2510295605        0.1320066907        1.5946099293
 H          2.1861703109       -1.2340505190        3.3570826398
 H          0.0011017012       -2.2979309197        2.9515916203
 H         -1.9171886288       -2.5334751206        1.6596962005
 C         -1.3358271387       -3.5034944011       -0.1425811492
 C         -0.1156835286       -3.8286114810       -0.9461614392
 C         -0.4060090484       -4.5901091907        0.3103737911
 H         -0.7309980481       -5.6164260708        0.2327127815
 H          0.2174963216       -4.3852872402        1.1675425110
 H         -0.2613140385       -4.3149950914       -1.8989016090
 H          0.7092068312       -3.1322600208       -0.9440759694
 H         -2.2817190386       -3.8229705215       -0.5693019591
