  62
        -98.93796485
 C         -1.0566996925       -1.4292993875       -0.3811132756
 C         -2.3062605262       -1.6064976555        0.2661420614
 C         -3.4047685790       -0.7276508635       -0.1575796901
 C         -3.1775699565        0.1783624693       -1.1252843009
 C         -4.1646022081        1.1991811244       -1.6167086715
 C         -4.2484560383        2.3712524772       -0.6182686871
 C         -5.5987166545        2.5058426372        0.0872787377
 H         -5.4649077340        3.2057885355        0.9148996992
 H         -6.3168432692        2.9490021877       -0.6060347317
 C         -6.2084903316        1.2074330496        0.6246396946
 H         -7.0097839644        1.4937073570        1.3091679533
 H         -6.6783698913        0.6578528920       -0.1923143323
 C         -5.2451511118        0.2665021236        1.3597370193
 H         -4.3919506460        0.8205962090        1.7528734941
 H         -5.7713162965       -0.1571671776        2.2175791725
 C         -4.7363434529       -0.9161994760        0.5144143726
 H         -5.4896339762       -1.1834576475       -0.2318358484
 H         -4.5992895296       -1.7817750099        1.1692696348
 H         -3.4550573524        2.2475975538        0.1230326226
 H         -4.0403464622        3.3079463795       -1.1382557610
 H         -3.8111971941        1.5525451259       -2.5857196497
 H         -5.1402068909        0.7361483719       -1.7476910783
 O         -1.9719957857        0.3173076984       -1.7298275512
 C         -0.8763021594       -0.4597650463       -1.3688681024
 O          0.1543447104       -0.1828593110       -2.0099911243
 O         -2.4950597181       -2.4764061729        1.1602868622
 C          0.0731965594       -2.3278265206        0.0855060773
 C          0.8739600738       -1.6987335235        1.2020149647
 C          1.3314301967       -2.4666757696        2.2671532388
 C          2.1000394420       -1.8963572476        3.2655495933
 C          2.4356124354       -0.5553349779        3.2166755731
 C          1.9778165908        0.2225871403        2.1583933630
 C          1.2016759465       -0.3523601026        1.1617737828
 H          0.8421153293        0.2638342526        0.3533274104
 N          2.2911429199        1.5834160946        2.0877259178
 S          2.2140960969        2.4418751783        0.6634183781
 O          3.0162921009        3.6202019214        0.9290726651
 O          0.8391326705        2.7001292483        0.3115595083
 C          3.0194350078        1.4552726793       -0.5859370022
 C          2.5663994488        1.5471001597       -1.8851579961
 C          3.1983408505        0.8059523441       -2.8706144880
 C          4.2660713594       -0.0124598648       -2.5403899523
 C          4.7158207452       -0.0871252687       -1.2310574045
 C          4.0921425426        0.6560714206       -0.2425970062
 H          4.4249507441        0.6106208202        0.7813936986
 H          5.5461405830       -0.7257738278       -0.9759711494
 H          4.7483275417       -0.5972413789       -3.3080277627
 H          2.8409425396        0.8614574277       -3.8860928914
 H          1.7151862811        2.1724334604       -2.0999212945
 H          2.9941252465        1.9202204321        2.7270893796
 H          3.0362729770       -0.1077580246        3.9932547288
 H          2.4450686873       -2.5014803557        4.0897613574
 H          1.0691815711       -3.5124879150        2.3165833477
 H         -0.4165050238       -3.2241714960        0.4914564911
 C          1.0238163812       -2.7543508017       -1.0177407435
 C          1.7451727509       -4.0626182477       -0.9071365195
 C          0.6494315782       -3.8935469774       -1.9155302642
 H          0.9073427474       -3.8277436760       -2.9614576687
 H         -0.2952941032       -4.3840535344       -1.7301818357
 H          2.7633073804       -4.1168959934       -1.2594227017
 H          1.5435563507       -4.6792782279       -0.0448470738
 H          1.5534433896       -1.9225488921       -1.4646562048
