  62
        -98.94057282
 C         -1.3151633622       -1.2283283325        0.0766696213
 C         -2.2616213294       -0.8688847812        1.0609178139
 C         -2.9334187738        0.4297032465        0.8816951988
 C         -2.6056968768        1.2045270225       -0.1695288009
 C         -3.0812547488        2.5891798662       -0.5568152545
 C         -4.3973948138        3.1449646740       -0.0161404286
 C         -5.6482409283        2.3787235286       -0.4414263548
 H         -6.5088312306        2.8389796976        0.0495065200
 H         -5.7808612809        2.4929028124       -1.5201464345
 C         -5.6424758872        0.8837313438       -0.1305568256
 H         -6.6115998566        0.4767105615       -0.4317303335
 H         -4.8838281312        0.3846981841       -0.7369179711
 C         -5.4218080379        0.5203198961        1.3373925802
 H         -6.1349488877        1.0617355918        1.9619077958
 H         -5.6292407451       -0.5478239296        1.4435773272
 C         -4.0015808199        0.7698344052        1.8798511248
 H         -3.8460275687        0.1078681783        2.7368646389
 H         -3.8844039131        1.7920134955        2.2331845957
 H         -4.3588504310        3.2261625292        1.0663190779
 H         -4.4858195106        4.1628463183       -0.4060452313
 H         -2.2793168238        3.2767689551       -0.2653199291
 H         -3.1152222487        2.5930908212       -1.6503273504
 O         -1.6640396118        0.8248090232       -1.0810804212
 C         -1.0074500343       -0.3923289221       -0.9965504339
 O         -0.1943947088       -0.6049477727       -1.9122620983
 O         -2.5251712959       -1.5923587439        2.0605817634
 C         -0.5740467164       -2.5467687158        0.1990227425
 C          0.9129886793       -2.2925533388        0.2190552275
 C          1.8265859227       -3.0209625075       -0.5306140681
 C          3.1749484192       -2.7074810724       -0.4933670992
 C          3.6418108963       -1.6676236204        0.2888501491
 C          2.7370477095       -0.9408685219        1.0521151420
 C          1.3901341204       -1.2615478859        1.0196125697
 H          0.6890701755       -0.6885141339        1.6146632142
 N          3.1975054360        0.1335986213        1.8440674971
 S          3.9470452516        1.3832845371        1.0128240434
 O          5.2551295300        0.9462963172        0.5955349014
 O          3.9112887990        2.5138234928        1.9137902294
 C          2.9184911080        1.6892845204       -0.4097138603
 C          3.2182081711        1.0811790756       -1.6114955537
 C          2.3774197743        1.2868886428       -2.6925491933
 C          1.2591304390        2.0926206621       -2.5550507221
 C          0.9737694944        2.6986563706       -1.3421075376
 C          1.8047931959        2.4900233839       -0.2543822833
 H          1.6165375625        2.9449061683        0.7058532223
 H          0.0994288991        3.3217288357       -1.2407397378
 H          0.5995059836        2.2418096581       -3.3947734463
 H          2.5889127383        0.8092617912       -3.6352738970
 H          4.0996312436        0.4650451013       -1.6801376316
 H          2.4766887204        0.5181365735        2.4388573831
 H          4.6851255796       -1.3973983712        0.3143913851
 H          3.8718445099       -3.2787091164       -1.0875512713
 H          1.4828175789       -3.8292576131       -1.1546818961
 H         -0.8690219555       -2.9640681657        1.1734603307
 C         -1.0101487430       -3.5019003875       -0.8922222321
 C         -0.9806072174       -4.9823024815       -0.6599176573
 C         -2.2915356784       -4.2591641496       -0.7205765131
 H         -2.9245542232       -4.4054942819       -1.5829222851
 H         -2.8371162491       -4.1071779819        0.1994093720
 H         -0.7155070736       -5.6288093164       -1.4828638373
 H         -0.6393204240       -5.3313836836        0.3029283802
 H         -0.7761343527       -3.1321431313       -1.8842761539
