  62
        -98.94096972
 C          1.0485351105        1.5636813900        0.4729208396
 C          2.0242923900        1.3010463294       -0.5175321806
 C          3.1525463899        0.4582396292       -0.0974490407
 C          3.2027049202       -0.0140287404        1.1609975094
 C          4.3007175302       -0.8496054105        1.7639189393
 C          4.4662458596       -2.2673186507        1.1828001398
 C          5.5118582792       -2.3732616214        0.0656457495
 H          6.2308544594       -1.5610644516        0.1803375289
 H          6.0671208089       -3.3047325415        0.1932818596
 C          4.9642623287       -2.3729936318       -1.3648084104
 H          5.8021837185       -2.1990016123       -2.0435361407
 H          4.5566734083       -3.3611616418       -1.5905023898
 C          3.8671736988       -1.3499167016       -1.6609859103
 H          3.7117404585       -1.3195347519       -2.7414960203
 H          2.9219907089       -1.6875258212       -1.2261647099
 C          4.1569349994        0.0729576585       -1.1438060510
 H          5.1701317596        0.1413559984       -0.7505647813
 H          4.0511530694        0.7926630183       -1.9580905412
 H          3.4981058694       -2.6336722306        0.8394816303
 H          4.7803331697       -2.9122380105        2.0053471399
 H          5.2451072303       -0.3079248208        1.6741470288
 H          4.0581928206       -0.9271193800        2.8257793594
 O          2.2364755907        0.2549081703        2.0811771397
 C          1.1247750108        1.0114393905        1.7505054198
 O          0.2867136411        1.1248054810        2.6696905000
 H         -0.5121730203       -0.2436541798       -0.1769551792
 C         -1.0645658204        0.3066695201       -0.9225884492
 C         -0.9842915900        1.6914528601       -0.9500784197
 C         -1.6803369102        2.3733710699       -1.9406606097
 C         -2.4216509707        1.6759951198       -2.8790830692
 C         -2.5072002211        0.2957486498       -2.8392811287
 C         -1.8183062209       -0.3945553800       -1.8489407386
 N         -1.8706793813       -1.7941313600       -1.7572539781
 S         -1.8898345810       -2.5092811194       -0.2451186478
 O         -0.5759105008       -2.4752524796        0.3480291517
 O         -2.4353316414       -3.8288950293       -0.4845511172
 C         -3.0564146604       -1.5386280087        0.6931527522
 C         -4.3876738905       -1.6462322885        0.3362149827
 C         -5.3269324801       -0.8695204380        0.9928250228
 C         -4.9210073995        0.0053268423        1.9897343123
 C         -3.5838690793        0.0969824320        2.3409796518
 C         -2.6385151398       -0.6808495885        1.6893360518
 H         -1.5929726696       -0.6170150587        1.9489916714
 H         -3.2569052788        0.7732883522        3.1149371314
 H         -5.6493888391        0.6171768927        2.4980380624
 H         -6.3683789402       -0.9443339177        0.7247496032
 H         -4.6637649410       -2.3463832787       -0.4354228869
 H         -2.5109723417       -2.2420821000       -2.3959883877
 H         -3.0903347715       -0.2437261503       -3.5694342682
 H         -2.9489040508        2.2168065897       -3.6500538592
 H         -1.6353919399        3.4492928399       -1.9824504901
 C         -0.1809889994        2.3818552302        0.1272535597
 H         -0.7980388291        2.4010853708        1.0387421500
 C          0.2051802509        3.8026730200       -0.2297634209
 C         -0.7086237187        4.9429011404        0.1022551590
 C          0.5611835815        4.7514253403        0.8740716186
 H          1.3743584517        5.4439370000        0.7170049981
 H          0.4959078118        4.3788205007        1.8863546188
 H         -0.7665216887        5.7737327601       -0.5847179513
 H         -1.6392970886        4.7115857508        0.5979703094
 H          0.7860167205        3.8569256195       -1.1429641911
 O          1.9618798797        1.7478555390       -1.6927110108
