  62
        -98.93849908
 C         -2.2366881335       -0.9159419607       -0.4687248123
 C         -1.5153888429        0.1624069151       -1.0415027972
 C         -2.0444599699        1.5135838477       -0.7947046795
 C         -3.1522348611        1.6738970547       -0.0530781418
 C         -3.7599797287        2.9925131517        0.3248118440
 C         -3.2078364625        3.4970698042        1.6650688802
 C         -1.6820719498        3.4617241002        1.7647248454
 H         -1.4112416771        3.8825290328        2.7360757439
 H         -1.3382900840        2.4239073415        1.7646955366
 C         -0.9510776588        4.2295986104        0.6545871408
 H         -0.1465084719        4.8126072260        1.1079157856
 H         -1.6343988979        4.9331587759        0.1762471879
 C         -0.3080302813        3.3347895741       -0.4068169546
 H          0.3839890102        3.9445166863       -0.9945097581
 H          0.2768896221        2.5562755019        0.0902433615
 C         -1.2829774006        2.6669603057       -1.3856360134
 H         -1.9688790090        3.4142319832       -1.7903911149
 H         -0.6977244638        2.2550409752       -2.2125086125
 H         -3.5588683477        4.5194081127        1.8190793495
 H         -3.6155474380        2.8737781564        2.4644959682
 H         -4.8396917252        2.8597338128        0.4147908374
 H         -3.5571523603        3.7189860742       -0.4597342900
 O         -3.8291686418        0.6250331872        0.4777398976
 C         -3.3841530666       -0.6705538532        0.3013687772
 O         -4.1004821610       -1.5206523823        0.8719182707
 O         -0.4751221598        0.0487793284       -1.7410348781
 C         -1.8686514538       -2.3934441752       -0.5314181813
 C         -0.6910990624       -2.7481808728        0.3517341285
 C         -0.7617000355       -3.8745730651        1.1659780371
 C          0.2883386133       -4.2087859414        2.0010357103
 C          1.4143130969       -3.4081492098        2.0649491489
 C          1.4974665572       -2.2812580599        1.2545921282
 C          0.4626085259       -1.9798550081        0.3808516589
 H          0.5490878660       -1.1176688938       -0.2544561380
 N          2.6275862391       -1.4516801596        1.3056210713
 S          2.5123227187        0.2285050142        1.3316374417
 O          3.3533266504        0.6432527089        2.4391185760
 O          1.1395281487        0.6636684829        1.3830240272
 C          3.3177339766        0.7101349553       -0.1830467120
 C          2.6002478440        0.8417367484       -1.3540424879
 C          3.2762618999        1.1869841853       -2.5150685261
 C          4.6465703669        1.3912068015       -2.4890559436
 C          5.3531807279        1.2554935974       -1.3034476813
 C          4.6849566298        0.9113723220       -0.1404864661
 H          5.1918493966        0.8079602980        0.8048015398
 H          6.4191193959        1.4161884191       -1.2825817037
 H          5.1650388980        1.6582108444       -3.3965679520
 H          2.7217749902        1.2903243690       -3.4342620978
 H          1.5337921230        0.6785773251       -1.3595503349
 H          3.3213602688       -1.7526325186        1.9750692983
 H          2.2224837606       -3.6490108942        2.7395246185
 H          0.2206871936       -5.0865690357        2.6259670113
 H         -1.6563578612       -4.4805514707        1.1518246486
 H         -2.7455061704       -2.8838454416       -0.0800092745
 C         -1.7115208804       -3.0597327584       -1.8969242531
 C         -2.2243419731       -2.4575255548       -3.1681353516
 C         -0.7501739637       -2.6392544677       -2.9638702370
 H         -0.2447077589       -3.4150601663       -3.5204991901
 H         -0.1629481193       -1.7534230415       -2.7919303246
 H         -2.7434301965       -3.0939389741       -3.8697484409
 H         -2.6127195647       -1.4504142344       -3.1191343812
 H         -1.8467282803       -4.1339904330       -1.8003555330
