  62
        -98.93479302
 C         -1.9440331408       -0.9161338114        0.7216825994
 C         -1.9754140610       -0.2388554915       -0.5204336307
 C         -2.3197372618        1.1950446783       -0.4790231809
 C         -2.5062639122        1.8017876483        0.7064000190
 C         -2.8096954629        3.2459202982        1.0479678288
 C         -3.3592594533        4.2001350978       -0.0101739214
 C         -4.7511126331        3.8494961071       -0.5335450214
 H         -5.4726686232        3.9823014468        0.2763518985
 H         -5.0033737534        4.5590264168       -1.3246177415
 C         -4.9142282823        2.4298834269       -1.0711687913
 H         -4.7981146420        1.7130708171       -0.2556009112
 H         -5.9370496722        2.3293096064       -1.4440173214
 C         -3.9653733620        2.0474632273       -2.2062019012
 H         -4.3094191715        1.0927954470       -2.6126120511
 H         -4.0264708823        2.7913622671       -3.0025790813
 C         -2.4877458420        1.8727248080       -1.8078670910
 H         -2.0091433516        1.2213221982       -2.5449362509
 H         -1.9538260624        2.8202785983       -1.8200134311
 H         -2.6576506533        4.2921233781       -0.8340386913
 H         -3.4224578238        5.1832889178        0.4643348985
 H         -3.5053377130        3.2089269980        1.8924709587
 H         -1.8729938832        3.6617861287        1.4366247188
 O         -2.3788651819        1.1248177985        1.8867061991
 C         -2.1009460013       -0.2294972113        1.9253087793
 O         -2.0210319411       -0.7005095512        3.0790852293
 H          0.7351324293       -1.1868597100        1.0212746296
 C          0.7539319197       -1.9239881401        0.2298433397
 C         -0.3867218599       -2.6740457507       -0.0310985603
 C         -0.3460768893       -3.6159894008       -1.0495048102
 C          0.8055236309       -3.7799846403       -1.8001066101
 C          1.9270590604       -3.0091402897       -1.5593220100
 C          1.8987999999       -2.0700408996       -0.5331125002
 N          3.0325641995       -1.2890330490       -0.2433793201
 S          2.8180499886        0.2631524609        0.3804023797
 O          2.5634377186        0.1624982910        1.7970838697
 O          1.8466013983        1.0013223604       -0.3959265205
 C          4.4551688983        0.9212550117        0.1189488697
 C          5.4641162784        0.5309035623        0.9795836799
 C          6.7481455682        1.0060510430        0.7660724099
 C          7.0009329879        1.8587095630       -0.2985524001
 C          5.9782039878        2.2433260324       -1.1522878303
 C          4.6916080380        1.7699655917       -0.9454879503
 H          3.8632659979        2.0447833812       -1.5788246404
 H          6.1768637575        2.9084026324       -1.9771800103
 H          8.0009947577        2.2277092734       -0.4624216001
 H          7.5451311083        0.7108018534        1.4291822901
 H          5.2163449287       -0.1252944177        1.7975140599
 H          3.7096391695       -1.2916799188       -0.9944250701
 H          2.8162952806       -3.1260826393       -2.1598646699
 H          0.8231211413       -4.5081740304       -2.5968696700
 H         -1.2233942590       -4.1988328713       -1.2769486202
 C         -1.6010246701       -2.3932516512        0.8194808596
 H         -1.3099452401       -2.5441700709        1.8731981496
 C         -2.7678238496       -3.3317029118        0.5526666796
 C         -4.1775334298       -2.8997892225        0.8236303694
 C         -3.7210163196       -3.1271327424       -0.5845435306
 H         -4.0892286591       -3.9990209127       -1.1052859305
 H         -3.5607559500       -2.2718828824       -1.2209296406
 H         -4.8553764995       -3.6120419228        1.2696221594
 H         -4.3314256104       -1.8829945625        1.1559442092
 H         -2.5252323991       -4.3587549117        0.8080045897
 O         -1.7369627507       -0.7917739416       -1.6252879006
