  62
        -98.94013532
 C         -2.0325685606       -0.6437842963        0.9767498862
 C         -2.8696953466       -1.1642778816       -0.0413129834
 C         -4.2643448606       -0.6907362842       -0.0254879805
 C         -4.6620581967        0.1831563667        0.9155140939
 C         -6.0314558713        0.7909130953        1.0014625250
 C         -6.1023897778        2.1116214885        0.2220931622
 C         -5.5415588320        2.0227303750       -1.1973428045
 H         -5.6732490475        3.0031219780       -1.6604527813
 H         -4.4664442712        1.8353515502       -1.1449213758
 C         -6.2013518424        0.9497952212       -2.0749055028
 H         -7.1597642072        0.6571812619       -1.6443784848
 H         -6.4056625114        1.3793401082       -3.0579772365
 C         -5.3458215231       -0.2977097787       -2.3028043899
 H         -4.3519645987       -0.0012962010       -2.6473166043
 H         -5.8073791353       -0.8846124899       -3.1013981680
 C         -5.1803495746       -1.2238297930       -1.0913194113
 H         -6.1605299108       -1.4620990020       -0.6736197855
 H         -4.7212732439       -2.1518426623       -1.4444645264
 H         -7.1444347572        2.4345505752        0.1841244133
 H         -5.5323308145        2.8670497441        0.7681267288
 H         -6.7621008898        0.0860302827        0.6094704067
 H         -6.2559075376        0.9866549500        2.0514169044
 O         -3.8321274983        0.6561583962        1.8806125961
 C         -2.5059917953        0.2650798831        1.9271780077
 O         -1.8530542456        0.7806159646        2.8579490292
 H          1.5579830519        0.4593226532        1.9081434268
 C          1.3567554842        0.5830019936        0.8524994750
 C          0.2881345769       -0.0895366501        0.2785444275
 C          0.0345903189        0.0934486207       -1.0773859157
 C          0.8282012603        0.9374056802       -1.8325598060
 C          1.8929672071        1.6080231349       -1.2559263746
 C          2.1579605794        1.4270586912        0.0944821679
 N          3.2674937945        2.0790318477        0.6713267972
 S          4.7536190349        1.6943342908       -0.0100779856
 O          5.7362979695        2.0058220068        1.0025547061
 O          4.8925322558        2.3835612409       -1.2671569476
 C          4.6519778464       -0.0657549946       -0.2769633542
 C          4.2930716885       -0.5497255742       -1.5187662898
 C          4.1059969158       -1.9137511648       -1.6763139177
 C          4.2799806839       -2.7652238741       -0.5967718860
 C          4.6515179813       -2.2644409703        0.6417495741
 C          4.8326439433       -0.9010841530        0.8077936560
 H          5.1213499211       -0.4730037575        1.7547023519
 H          4.7903942330       -2.9306844751        1.4780915919
 H          4.1214801584       -3.8245978268       -0.7193822476
 H          3.8178608600       -2.3066310659       -2.6380196755
 H          4.1704476700        0.1441334813       -2.3337868001
 H          3.3124001331        1.9764347950        1.6753941238
 H          2.5270495891        2.2636959955       -1.8307155396
 H          0.6175331998        1.0736941903       -2.8825242582
 H         -0.7865225959       -0.4400715518       -1.5312390982
 C         -0.5635764108       -1.0098283899        1.1138947271
 H         -0.3209924822       -0.8157816030        2.1705359378
 C         -0.2795169823       -2.4828181785        0.8465494566
 C          0.5719522091       -2.9722315834       -0.2830411478
 C          1.0900374910       -3.0309650028        1.1200757237
 H          1.1760665030       -3.9907548517        1.6059420685
 H          1.8592735524       -2.3240777943        1.3939207090
 H          0.2733265561       -3.8888567128       -0.7677190394
 H          1.0044977309       -2.2457215148       -0.9526517927
 H         -1.1184653536       -3.1127718254        1.1217692515
 O         -2.4952489038       -1.9771741051       -0.9236417938
