  62
        -98.94739883
 C          2.5630323370       -0.1412204360        0.3996938034
 C          2.1656296889       -0.7114943708       -0.8338949529
 C          1.7171629511       -2.1100537553       -0.7780798945
 C          1.6899762090       -2.7467660343        0.4066191667
 C          1.2314645416       -4.1613436017        0.6138954104
 C         -0.2629910430       -4.2294877642        0.9533526529
 C         -1.1560703245       -3.4453361045       -0.0085010626
 H         -2.1909750465       -3.6212521534        0.2957146370
 H         -0.9717865624       -2.3748119829        0.1148911130
 C         -0.9862125859       -3.8206904731       -1.4872297100
 H         -0.5082050060       -4.7981161464       -1.5705976050
 H         -1.9764631629       -3.9017206698       -1.9401456098
 C         -0.2043776421       -2.7946998504       -2.3103072975
 H         -0.6041376163       -1.7965924740       -2.1157133903
 H         -0.3608860245       -3.0156155685       -3.3699752207
 C          1.3104215495       -2.7603001839       -2.0701692687
 H          1.7194519701       -3.7713785385       -2.1379827744
 H          1.7584342733       -2.1527761859       -2.8621298668
 H         -0.5656140031       -5.2787857375        0.9593670906
 H         -0.4101546004       -3.8249273422        1.9576645379
 H          1.4362199492       -4.7367813692       -0.2870512527
 H          1.8011154875       -4.5853211987        1.4430688984
 O          2.0660089162       -2.1608483336        1.5736146359
 C          2.4933210460       -0.8440942417        1.6007744827
 O          2.7918682300       -0.4223136860        2.7386671084
 O          2.2023768657       -0.0902444922       -1.9287360419
 C          3.0116919151        1.3081989155        0.4549672096
 C          1.9015430109        2.2034355939       -0.0420515437
 C          2.1126916437        3.3094352605       -0.8555632680
 C          1.0420640871        4.0733569085       -1.2879300706
 C         -0.2541759674        3.7450364885       -0.9357093843
 C         -0.4737588643        2.6495225038       -0.1085504909
 C          0.6021394215        1.9068959575        0.3470661364
 H          0.4194656287        1.0592152599        0.9923641237
 N         -1.7734286210        2.2767043746        0.2871696068
 S         -2.0841198946        0.6115617799        0.3060980394
 O         -1.6422348310        0.0673594228        1.5668196663
 O         -1.5516457109        0.0004009101       -0.8882500836
 C         -3.8666669213        0.6085593275        0.2569188972
 C         -4.5557189714        1.0068350048        1.3872012250
 C         -5.9407021826        1.0324096341        1.3525408591
 C         -6.6098364683        0.6599186736        0.1956910326
 C         -5.9047686323        0.2590061934       -0.9288971761
 C         -4.5188157316        0.2338291944       -0.9019425699
 H         -3.9268147995       -0.0745566790       -1.7487335457
 H         -6.4270219275       -0.0339955674       -1.8253148051
 H         -7.6878927516        0.6793050886        0.1720316198
 H         -6.4922140520        1.3408106829        2.2259741232
 H         -3.9925242236        1.2771222653        2.2652281453
 H         -2.4878874665        2.7667299603       -0.2356799256
 H         -1.0887660621        4.3271994103       -1.2962084595
 H          1.2191990426        4.9270354762       -1.9244957499
 H          3.1140494124        3.5659936944       -1.1606771188
 H          3.1794484506        1.5331039957        1.5193898918
 C          4.3151731713        1.4910798418       -0.2948420908
 C          5.3008132450        2.5319176601        0.1418515339
 C          5.5931881121        1.0803546140        0.3706222790
 H          6.3558847532        0.6042600553       -0.2269014940
 H          5.5227035559        0.6940750881        1.3773751000
 H          5.8688365052        3.0531984424       -0.6138590768
 H          5.0436521723        3.1359005517        0.9989096117
 H          4.2144073080        1.2886751159       -1.3548934468
