  62
        -98.93240459
 C          2.4161275510        0.9094965263       -0.0673564889
 C          3.5817508748        1.0613373148        0.7191681796
 C          4.8270592690        0.5371461872        0.1394012442
 C          4.7914578538       -0.0361338097       -1.0776070926
 C          5.9563003624       -0.6895816678       -1.7657549444
 C          6.2115335399       -2.0843219486       -1.1592776324
 C          7.5478230564       -2.2201437249       -0.4288421391
 H          7.5200345816       -3.1573288201        0.1312613185
 H          8.3488184507       -2.3011129497       -1.1666485067
 C          7.9057889867       -1.0782710566        0.5273166076
 H          8.2951412776       -0.2320789898       -0.0406567727
 H          8.7249436348       -1.4348040230        1.1554218215
 C          6.7719398996       -0.5808385987        1.4331188138
 H          6.0218009732       -1.3595447454        1.5738057830
 H          7.1931726834       -0.3648922587        2.4171590047
 C          6.0833517890        0.7086559844        0.9480022983
 H          5.7748019185        1.2891719948        1.8225605258
 H          6.7990234654        1.3157879750        0.3868410454
 H          5.3942570837       -2.3136376707       -0.4720124618
 H          6.1759059633       -2.8364830438       -1.9488326536
 H          6.8398120206       -0.0624842268       -1.6691195826
 H          5.7022630353       -0.7759241983       -2.8223139992
 O          3.6510491572       -0.1576500530       -1.8060241364
 C          2.4358541887        0.3067516718       -1.3245828487
 O          1.4746348451        0.1303985764       -2.0961553506
 O          3.5796666791        1.6081602534        1.8557410259
 C          1.0935203753        1.4204017326        0.4729249878
 C          0.0920550641        0.2946684138        0.5592189573
 C          0.4757372521       -0.9029547548        1.1575274009
 C         -0.4097563377       -1.9577104684        1.2620616922
 C         -1.7008275464       -1.8431936121        0.7769029841
 C         -2.1002292082       -0.6491951033        0.1942631566
 C         -1.2081503519        0.4132296754        0.0957844855
 H         -1.5341034845        1.3343926028       -0.3614583387
 N         -3.4063084020       -0.5235162324       -0.3086817761
 S         -4.6652158639       -1.1985592655        0.5915648418
 O         -4.5053634496       -0.8723793949        1.9909836803
 O         -4.7508537761       -2.6035015048        0.2797376901
 C         -6.0687065059       -0.3400693701       -0.0928184593
 C         -6.5994132175       -0.7823366279       -1.2898924926
 C         -7.6746809113       -0.1007939601       -1.8373031607
 C         -8.1973831133        1.0053052243       -1.1834472600
 C         -7.6544384132        1.4365157736        0.0175456342
 C         -6.5783531870        0.7600894793        0.5703844854
 H         -6.1298929700        1.0541999831        1.5057880134
 H         -8.0646981687        2.2949702274        0.5246020694
 H         -9.0350227735        1.5332278748       -1.6112592645
 H         -8.1013264196       -0.4341189682       -2.7695651879
 H         -6.1658449121       -1.6507949942       -1.7577102872
 H         -3.6189516747        0.4216253110       -0.5968471144
 H         -2.4021932998       -2.6588216115        0.8502404066
 H         -0.0940188017       -2.8812797989        1.7245557784
 H          1.4840512910       -0.9971674341        1.5380121036
 H          1.3089874183        1.7619844380        1.4966074164
 C          0.6173001773        2.6037838221       -0.3433855067
 C         -0.2344501570        3.6648423533        0.2857608463
 C          1.1947572069        3.9563614520       -0.0571088863
 H          1.4043008669        4.6138208318       -0.8874306146
 H          1.9120548558        4.0273724585        0.7473715381
 H         -1.0059996235        4.1286460522       -0.3104306327
 H         -0.4912123266        3.5467770323        1.3277344639
 H          0.4371552385        2.3459853003       -1.3812448492
