  62
        -98.93628500
 C         -2.4138685006       -0.1269813061       -0.4907417243
 C         -3.6438910254       -0.5500550679       -1.0566937612
 C         -4.7922567144       -0.6166599968       -0.1439508259
 C         -4.6114876532       -0.3312441942        1.1581650622
 C         -5.7011197487       -0.3074807457        2.1897670419
 C         -6.3252162227        1.0902618582        2.3072988077
 C         -6.7183073712        1.7071448785        0.9649243153
 H         -7.1738620145        2.6774614388        1.1738792513
 H         -5.8144515529        1.8962252764        0.3811937176
 C         -7.6881238427        0.8553130620        0.1340673814
 H         -8.4727293601        1.5033890650       -0.2620352019
 H         -8.1714246633        0.1150023133        0.7726125362
 C         -7.0469043076        0.1498717785       -1.0623960003
 H         -7.8473695368       -0.2410091073       -1.6961576347
 H         -6.4844722117        0.8743631906       -1.6570184362
 C         -6.1174110691       -1.0226845562       -0.7249820359
 H         -6.6313718593       -1.7204013801       -0.0605507094
 H         -5.8871303582       -1.5440200005       -1.6588613473
 H         -5.6025583317        1.7523310054        2.7899017723
 H         -7.2050138768        1.0219445998        2.9496812680
 H         -6.4638149824       -1.0360008842        1.9212160603
 H         -5.2688723805       -0.5853980222        3.1524902027
 O         -3.4069072987        0.0134851164        1.6771872397
 C         -2.2773134553        0.1282012229        0.8748496029
 O         -1.2510806800        0.4540703518        1.4985413782
 H          1.2554829872        0.9149624460       -0.6185617487
 C          1.1479043148       -0.1485656390       -0.4723199565
 C         -0.0402468151       -0.7747546576       -0.8108420232
 C         -0.1564540064       -2.1449344299       -0.5902975894
 C          0.8826085554       -2.8625563317       -0.0312326397
 C          2.0637907098       -2.2313565781        0.3171439276
 C          2.1930363382       -0.8675725753        0.0967731664
 N          3.3833612440       -0.2164931960        0.4644243349
 S          4.8383430368       -1.0036536779        0.1293668812
 O          4.8062286373       -1.5566897373       -1.2064253520
 O          5.1100087860       -1.9415143135        1.1901491163
 C          5.9921294278        0.3519304123        0.2124736298
 C          6.3847618055        0.9770658940       -0.9558900091
 C          7.2663129600        2.0440212819       -0.8816493475
 C          7.7352495277        2.4669415592        0.3530063385
 C          7.3317720651        1.8294372314        1.5169745976
 C          6.4513864336        0.7613298362        1.4500212524
 H          6.1180671470        0.2303582631        2.3263575589
 H          7.7007283002        2.1598144568        2.4745423452
 H          8.4222007909        3.2966202711        0.4082105156
 H          7.5841367168        2.5396212239       -1.7848379613
 H          6.0021058742        0.6078867483       -1.8939268004
 H          3.4025433189        0.7489902302        0.1665830724
 H          2.8843340918       -2.7778221209        0.7539294631
 H          0.7751292024       -3.9240206109        0.1368998513
 H         -1.0805848618       -2.6400579639       -0.8578420826
 C         -1.2127071193       -0.0443531996       -1.4158628165
 H         -1.5269724153       -0.6048031906       -2.3126183713
 C         -0.8779092155        1.3624916702       -1.8878084511
 C         -1.9469363295        2.4058277405       -2.0108302270
 C         -0.8789326014        2.5473861531       -0.9703293557
 H         -0.1245187820        3.3071857410       -1.1156584361
 H         -1.1371548530        2.3802562174        0.0633194099
 H         -2.9428003242        2.1392397356       -1.6878261540
 H         -1.9270889294        3.0645440807       -2.8660093946
 H         -0.1245898898        1.3542800593       -2.6702106413
 O         -3.7730050561       -0.8625736169       -2.2708240424
