  62
        -98.94792207
 C         -0.9263628275       -1.0892100602        0.6925456310
 C         -1.4485751540       -0.9220405364       -0.6127778966
 C         -2.1850816196        0.3276006997       -0.8506147596
 C         -2.2879441818        1.2317497104        0.1401090030
 C         -3.0401870968        2.5275380668        0.0444337843
 C         -4.4985877824        2.3608605477        0.4936847148
 C         -5.2122751106        1.1743754517       -0.1536261854
 H         -4.7466911822        0.2477818739        0.1894402878
 H         -6.2408645101        1.1737360454        0.2131713903
 C         -5.2174021836        1.1979830996       -1.6884337852
 H         -6.2202780876        0.9469335489       -2.0402076939
 H         -4.9914324001        2.2035260781       -2.0453196167
 C         -4.2552801385        0.2030533196       -2.3406201831
 H         -4.4913113970        0.1496196756       -3.4068131700
 H         -4.4160727777       -0.7926488868       -1.9197053814
 C         -2.7633613176        0.5397825402       -2.2204518070
 H         -2.2106235419       -0.1335261039       -2.8827911522
 H         -2.5845378231        1.5631365950       -2.5589669165
 H         -4.5126187404        2.2192354342        1.5766289852
 H         -5.0374507056        3.2816824017        0.2634536057
 H         -2.5524174486        3.2597185668        0.6904721469
 H         -3.0021309755        2.8861720648       -0.9827756697
 O         -1.7477056551        1.0483453698        1.3722604007
 C         -1.0452406887       -0.1074812661        1.6747022520
 O         -0.5798416536       -0.1391291460        2.8317025686
 O         -1.3123705964       -1.7737932714       -1.5298363233
 C         -0.1184524561       -2.3291035471        1.0306360878
 C          1.0876733225       -2.4047747118        0.1250049285
 C          1.5386207541       -3.5805128741       -0.4605221288
 C          2.6454340297       -3.5662169116       -1.2921192584
 C          3.3133849612       -2.3870432585       -1.5671076331
 C          2.8763352720       -1.2068657180       -0.9762657692
 C          1.7884152689       -1.2309906951       -0.1207241126
 H          1.4555163106       -0.3120806825        0.3398107899
 N          3.5287851743        0.0137393473       -1.2093969902
 S          2.6204524956        1.4140324273       -1.3434050709
 O          1.3419608278        1.1751410292       -1.9708600212
 O          3.4982960383        2.3398656074       -2.0306691175
 C          2.3976950780        1.9753344010        0.3301030585
 C          3.4735946531        1.9564902917        1.1950218198
 C          3.2949928190        2.4145047250        2.4904039199
 C          2.0542814074        2.8834703805        2.8948528359
 C          0.9864408177        2.9031275634        2.0117120540
 C          1.1590359973        2.4472670842        0.7150697467
 H          0.3513239778        2.4269411926       -0.0013599241
 H          0.0175144104        3.2530755728        2.3301313277
 H          1.9137131569        3.2314918896        3.9059185363
 H          4.1211591786        2.4000928519        3.1829363586
 H          4.4208296801        1.5805056216        0.8461268833
 H          4.2703209586       -0.0204709772       -1.8940240106
 H          4.1617652657       -2.3750331824       -2.2343407647
 H          2.9836460467       -4.4855431238       -1.7458253574
 H          1.0184287778       -4.5059640778       -0.2751536813
 H          0.2384809553       -2.1876597062        2.0617435741
 C         -0.9903299117       -3.5663811689        0.9805814495
 C         -0.6945380462       -4.7364454017        1.8688651262
 C         -1.8835422302       -3.8676213447        2.1452191982
 H         -2.8696995615       -4.2618058839        1.9507405116
 H         -1.8414726449       -3.1930092691        2.9881584116
 H         -0.8673579105       -5.7311491458        1.4864371319
 H          0.1528526139       -4.6585804024        2.5330341522
 H         -1.3795114467       -3.7596329788       -0.0124930932
