  62
        -98.93794485
 C         -2.4556395057       -0.8865447862        0.7844020689
 C         -3.5174015965       -0.9191403653       -0.1525760796
 C         -4.6157623898        0.0300675694        0.0902635184
 C         -4.5548568562        0.8652328543        1.1423642671
 C         -5.5758998049        1.9156291832        1.4681336791
 C         -5.2249587305        3.2571865280        0.8097481632
 C         -4.8916970192        3.1472876227       -0.6781813900
 H         -4.6929563999        4.1576361532       -1.0423655595
 H         -3.9673153084        2.5767562339       -0.7961616580
 C         -5.9949776765        2.5047369827       -1.5303950650
 H         -6.9418568054        2.5280022085       -0.9897241912
 H         -6.1255834884        3.0971343020       -2.4384569947
 C         -5.6997041838        1.0705206215       -1.9731300633
 H         -6.4279890540        0.7949053951       -2.7405984918
 H         -4.7085604394        1.0251135325       -2.4317402059
 C         -5.7703410589        0.0052721727       -0.8718590422
 H         -6.7185726954        0.0907103778       -0.3373724871
 H         -5.7355920338       -0.9747134612       -1.3566316936
 H         -6.0662890019        3.9390285735        0.9464617730
 H         -4.3581406736        3.6790092543        1.3236655006
 H         -6.5547918422        1.5793793403        1.1320240864
 H         -5.5991162244        2.0478076628        2.5511573186
 O         -3.5145638483        0.8766641391        2.0142369066
 C         -2.4461747849        0.0136429329        1.8544922253
 O         -1.5590513462        0.1341097575        2.7241557919
 O         -3.5725149991       -1.6931687479       -1.1438573401
 C         -1.2417457441       -1.7992758125        0.6934186724
 C         -0.2607060486       -1.2546689575       -0.3180152651
 C         -0.4894840059       -1.3458131790       -1.6865914181
 C          0.4273187816       -0.8280011866       -2.5837463463
 C          1.5839666959       -0.2110916794       -2.1407268607
 C          1.8193701908       -0.1100835291       -0.7761333649
 C          0.9008423064       -0.6364886858        0.1233486070
 H          1.0784875683       -0.5468379533        1.1871324365
 N          2.9815486224        0.5362586747       -0.3151831061
 S          4.4318227039        0.1428212333       -1.0899807910
 O          4.5352485725        0.9323843827       -2.2915295834
 O          4.5251046542       -1.2891302071       -1.2664713507
 C          5.6269922216        0.7024473602        0.1067574476
 C          5.9797043298        2.0385085085        0.1230929101
 C          6.8910250759        2.4781863898        1.0699475790
 C          7.4302555987        1.5805003004        1.9795421312
 C          7.0672328758        0.2424002062        1.9498590734
 C          6.1555269591       -0.2039706001        1.0061827228
 H          5.8518951323       -1.2365949295        0.9402775959
 H          7.4904313846       -0.4535291585        2.6562579863
 H          8.1399399539        1.9251971969        2.7149710253
 H          7.1779412005        3.5170525967        1.0952426243
 H          5.5420368751        2.6972722465       -0.6086548554
 H          3.0772546416        0.4727490563        0.6893287401
 H          2.3085274015        0.1885112960       -2.8321351234
 H          0.2395540874       -0.9049342976       -3.6444285509
 H         -1.3997164839       -1.8047122478       -2.0394477532
 H         -0.7625774831       -1.7470347537        1.6803653998
 C         -1.5974726365       -3.2460758429        0.4157546037
 C         -0.5849099901       -4.3077849994        0.7184086846
 C         -1.8134773073       -4.1792781640        1.5671156880
 H         -2.5821746898       -4.9324841629        1.4815100227
 H         -1.7052556759       -3.7780209502        2.5645205361
 H         -0.5064605268       -5.1504873993        0.0489225562
 H          0.3585775884       -3.9930737567        1.1389674854
 H         -2.2249112232       -3.3810142392       -0.4544542299
