  62
        -98.93872824
 C         -2.6907101966       -0.1657661425       -0.2709137681
 C         -2.2660686828       -0.9567429550        0.8259620099
 C         -1.8466755303       -2.3285633511        0.4971161747
 C         -1.8526729891       -2.7518268222       -0.7785041401
 C         -1.5003045365       -4.1334150943       -1.2613683937
 C          0.0032501875       -4.3757551836       -1.4462608225
 C          0.7993369167       -4.5284641171       -0.1499912569
 H          0.3118048346       -5.2617482018        0.4936324085
 H          1.7788494567       -4.9283775585       -0.4193432578
 C          1.0009752054       -3.2164359969        0.6196385322
 H          0.8220105044       -2.3660601201       -0.0427164854
 H          2.0412154681       -3.1373075742        0.9467722656
 C          0.1315711980       -3.0576159995        1.8670300635
 H          0.3207407572       -2.0601793324        2.2737527380
 H          0.4294351510       -3.7928313642        2.6192863366
 C         -1.3754884756       -3.2016164080        1.6212622948
 H         -1.6238271403       -4.2443143060        1.4199803685
 H         -1.8987670019       -2.8839779499        2.5271800609
 H          0.1159300115       -5.2928201353       -2.0295510877
 H          0.4204756364       -3.5519194076       -2.0302169402
 H         -1.9067451836       -4.8742341268       -0.5715317682
 H         -1.9903574456       -4.2537649762       -2.2300944900
 O         -2.2361469200       -1.9509524775       -1.8087723211
 C         -2.6350888554       -0.6464498862       -1.5816143355
 O         -2.9430490347       -0.0190896101       -2.6166490854
 O         -2.2514994188       -0.5728482202        2.0241390270
 C         -3.1327922178        1.2847282859       -0.1499836013
 C         -1.9599761966        2.1955552217       -0.4144982562
 C         -2.0906025522        3.3490317123       -1.1772234078
 C         -0.9956057506        4.1603047875       -1.4249162726
 C          0.2566856283        3.8176511393       -0.9488223741
 C          0.3982972547        2.6591407286       -0.1937756094
 C         -0.7073643818        1.8777870653        0.0936090706
 H         -0.5811993641        0.9948298598        0.7032716260
 N          1.6902233172        2.2386613761        0.2193119557
 S          1.9542782767        0.5885450762        0.3638304314
 O          1.3021953944       -0.0655874487       -0.7429448457
 O          1.6521881453        0.1200138478        1.7000819090
 C          3.7203986583        0.5475111646        0.1184908737
 C          4.2062771564        0.8629218808       -1.1360517556
 C          5.5756262248        0.8610627846       -1.3458501812
 C          6.4335417290        0.5453852708       -0.3022993178
 C          5.9318991746        0.2285909645        0.9505397551
 C          4.5622555493        0.2304221586        1.1661771564
 H          4.1257818273       -0.0128234374        2.1216672551
 H          6.6004016152       -0.0187895489        1.7594362993
 H          7.4993277248        0.5444118482       -0.4678943601
 H          5.9686503502        1.1050888866       -2.3196964045
 H          3.5002046203        1.0946043963       -1.9167866285
 H          2.0798171627        2.7573518156        0.9928113842
 H          1.1209015536        4.4252451741       -1.1630627359
 H         -1.1160647597        5.0557152102       -2.0153137338
 H         -3.0551104176        3.5986485481       -1.5949322899
 H         -3.8576629461        1.4422792913       -0.9659170850
 C         -3.8432528242        1.6023862889        1.1575460932
 C         -3.2019870124        2.3739418779        2.2674858369
 C         -4.2909190960        3.0031380824        1.4547942779
 H         -5.2586596108        3.1466163582        1.9106226701
 H         -4.0083590623        3.7777895636        0.7586317730
 H         -3.4116522288        2.0624395365        3.2791408725
 H         -2.1891220576        2.7179984536        2.1236578574
 H         -4.5141506332        0.8034557680        1.4546764443
