  62
        -98.94132896
 C         -1.3165235866       -1.7077915423        0.0270816514
 C         -2.1460192479       -1.1363558226        1.0186115806
 C         -3.0117973897       -0.0265472646        0.5905359391
 C         -2.9512030401        0.4069912841       -0.6827844713
 C         -3.7753959717        1.4541354319       -1.3999539427
 C         -4.4733897838        2.5676499816       -0.6211412041
 C         -3.5459711956        3.4973139940        0.1581768151
 H         -2.9307252664        4.0562306343       -0.5502462754
 H         -4.1680560770        4.2150798736        0.6977758341
 C         -2.6086659047        2.8124438167        1.1504645161
 H         -1.8641669535        2.2248958674        0.6087936569
 H         -2.0669519262        3.5927671283        1.6916905453
 C         -3.2914008634        1.9192560167        2.1863796969
 H         -4.0872908245        2.4751674059        2.6854587261
 H         -2.5418801732        1.6628526888        2.9400334774
 C         -3.8742262510        0.5977092951        1.6483502082
 H         -4.8895775011        0.7303405130        1.2812535378
 H         -3.9160558100       -0.1157788740        2.4763364390
 H         -5.2255022733        2.1513099510        0.0427617961
 H         -5.0053103247        3.1736593798       -1.3597523649
 H         -3.1052896023        1.8986905422       -2.1404993030
 H         -4.5376045906        0.9036441100       -1.9631302423
 O         -2.1013027889       -0.1475030454       -1.5929954205
 C         -1.2631847472       -1.2025300336       -1.2707804591
 O         -0.5391056063       -1.5859367134       -2.2073084085
 O         -2.1696260875       -1.5416809713        2.2131765810
 C         -0.4181519747       -2.8740923803        0.3984083430
 C          1.0241800346       -2.4652269380        0.2346130029
 C          1.9362465960       -3.1487099874       -0.5571762661
 C          3.2364335952       -2.6885244453       -0.6862014163
 C          3.6571336831       -1.5500652138       -0.0243329375
 C          2.7529057017       -0.8621463045        0.7763752115
 C          1.4517210825       -1.3221900166        0.9015021517
 H          0.7473606914       -0.7836029771        1.5238653809
 N          3.1740532495        0.2997017470        1.4597728603
 S          3.6170175475        1.6261518767        0.5417607190
 O          4.6749017384        1.2389500076       -0.3551229503
 O          3.9302388355        2.6673417183        1.4931986379
 C          2.1647781269        2.0865851432       -0.3878093819
 C          1.4726151549        3.2245222724       -0.0231870033
 C          0.3399204945        3.5783286997       -0.7374284840
 C         -0.0869731739        2.7827645278       -1.7896192933
 C          0.6094860082        1.6353388086       -2.1354437318
 C          1.7501193986        1.2826783613       -1.4313300511
 H          2.3118231702        0.3980624220       -1.6851650200
 H          0.2644842695        0.9990583171       -2.9353396212
 H         -0.9686010742        3.0575683657       -2.3472655038
 H         -0.2063531871        4.4688426891       -0.4707806152
 H          1.8416240837        3.8123904640        0.8017921061
 H          2.5229236089        0.5977250567        2.1730370098
 H          4.6603288825       -1.1709087022       -0.1299165476
 H          3.9328911763       -3.2259032148       -1.3118954055
 H          1.6289644376       -4.0370196885       -1.0835354552
 H         -0.6018616647       -3.0562536595        1.4675019531
 C         -0.7992688924       -4.1146995719       -0.3798826158
 C         -0.4839609302       -5.4721784107        0.1713923758
 C         -1.9011034610       -4.9863824432        0.1405181449
 H         -2.5851663501       -5.4306253851       -0.5668426248
 H         -2.3649923118       -4.6981475229        1.0726272945
 H         -0.1961126587       -6.2542727210       -0.5147140832
 H          0.0150549796       -5.5194176788        1.1274897060
 H         -0.7423251224       -3.9705032230       -1.4527382159
