  62
        -98.93967965
 C          0.6752036996        1.3705000497       -0.2501960095
 C          1.5783457198        1.1095468303        0.8102054505
 C          2.6184668400        0.0887918305        0.5879119306
 C          2.6519154100       -0.5435686098       -0.5992266392
 C          3.6717204502       -1.5302702997       -1.1039417490
 C          5.0003926100       -0.8596515095       -1.4899055294
 C          5.5231550399        0.1635244910       -0.4852239298
 H          6.4134841697        0.6272151511       -0.9183723100
 H          4.7791119397        0.9515518508       -0.3564234599
 C          5.9072718202       -0.4015676785        0.8802816504
 H          6.6691142504       -1.1729713283        0.7476759405
 H          6.3577937500        0.4138882518        1.4518749101
 C          4.7595720205       -0.9838032386        1.7086235207
 H          5.1248443806       -1.1000683082        2.7330527107
 H          4.4914452807       -1.9777532488        1.3613302510
 C          3.5202172902       -0.0979781289        1.7837498406
 H          2.8695421904       -0.4708777888        2.5834354708
 H          3.8166432300        0.9077806713        2.1016502902
 H          5.7483341702       -1.6402451393       -1.6399224393
 H          4.8551253197       -0.3451763098       -2.4431405695
 H          3.8375718905       -2.3132765294       -0.3704457388
 H          3.2479710602       -1.9899449701       -1.9995139188
 O          1.7252186898       -0.3065918304       -1.5695092391
 C          0.7118485096        0.6262450594       -1.4288279993
 O         -0.0524897905        0.6805205389       -2.4124863892
 O          1.5370418297        1.7330708906        1.9050400303
 C         -0.3271917107        2.4859620395       -0.0147982397
 C         -1.5935813605        1.9735832794        0.6269254306
 C         -2.0951500405        2.5782048696        1.7737583905
 C         -3.2550916503        2.1128479594        2.3656528308
 C         -3.9208497301        1.0223909791        1.8375301612
 C         -3.4235762301        0.4067149589        0.6930131714
 C         -2.2754449603        0.8937821990        0.0834478411
 H         -1.9125303703        0.4244550989       -0.8187612688
 N         -4.0702186898       -0.7165414114        0.1635072618
 S         -3.2567760496       -1.8653940715       -0.7241020780
 O         -3.0847300699       -1.4219487818       -2.0835569581
 O         -4.0615149493       -3.0605867816       -0.5620949775
 C         -1.6697918395       -2.1427497808        0.0472287619
 C         -1.4950070493       -1.9776784904        1.4065442718
 C         -0.2608246192       -2.2727933599        1.9639044617
 C          0.7633595109       -2.7550266898        1.1654969017
 C          0.5655967507       -2.9365316103       -0.1938832082
 C         -0.6566523894       -2.6166207808       -0.7610244381
 H         -0.8407617595       -2.7135682211       -1.8194227881
 H          1.3566808308       -3.3212948203       -0.8165426282
 H          1.7193650210       -2.9913561494        1.6050965317
 H         -0.1050974691       -2.1275890495        3.0208278217
 H         -2.3037068293       -1.6151334804        2.0195144518
 H         -4.7971496196       -1.1165066315        0.7380033520
 H         -4.8173636499        0.6440618790        2.3040147515
 H         -3.6372664703        2.5930011096        3.2532592607
 H         -1.5607189007        3.4093215999        2.2083523202
 H          0.1561232492        3.1582514999        0.7083631801
 C         -0.6655421111        3.2870503391       -1.2564440899
 C         -1.1173162315        4.7077142290       -1.1069539702
 C          0.2358474885        4.4071197092       -1.6770211603
 H          0.4031066884        4.5628060089       -2.7321365904
 H          1.1030445186        4.6067463196       -1.0643010805
 H         -1.8852197817        5.0743100686       -1.7705624102
 H         -1.1652207414        5.1178157893       -0.1097116403
 H         -1.1194401210        2.6932041087       -2.0394669596
