  62
        -98.94374603
 C         -1.2845834568       -1.4206485828        0.5932075082
 C         -2.0972631005       -1.0372182060       -0.5023729178
 C         -3.1662788081       -0.0726405523       -0.2018899121
 C         -3.2984545332        0.4062017806        1.0473843608
 C         -4.3064497223        1.4331802313        1.4729072102
 C         -3.7323507336        2.8528777029        1.3680748523
 C         -3.0584112505        3.1561734818        0.0292132525
 H         -2.7353971590        4.1995940539        0.0598777537
 H         -2.1500278201        2.5543510234       -0.0632995911
 C         -3.9525640257        2.9347176152       -1.1989867982
 H         -5.0003651527        2.9211933864       -0.8955466322
 H         -3.8220174064        3.7790910688       -1.8791873999
 C         -3.6383853673        1.6683332705       -1.9977706596
 H         -2.5659486151        1.6273290890       -2.2078258937
 H         -4.1585546868        1.7341964316       -2.9572984581
 C         -4.0521597837        0.3453755634       -1.3409857193
 H         -5.0948664349        0.4017522329       -1.0219155952
 H         -3.9633994855       -0.4413638445       -2.0959091296
 H         -4.5420110151        3.5653526761        1.5384086237
 H         -2.9886719103        2.9870586100        2.1573058431
 H         -5.1948439149        1.3424721295        0.8508867827
 H         -4.5790700677        1.2384256577        2.5117664783
 O         -2.4837803658        0.0369033956        2.0684580372
 C         -1.4382863787       -0.8474217485        1.8572774237
 O         -0.7217903858       -1.0400513155        2.8611020395
 H          0.6085261682        0.1448027002       -0.0693773714
 C          1.0257037805       -0.5146668747       -0.8148121862
 C          0.7344638658       -1.8712011032       -0.7596472686
 C          1.2425716022       -2.6965059287       -1.7534293454
 C          2.0125538281       -2.1638341914       -2.7739911506
 C          2.3086207173       -0.8135709312       -2.8174974141
 C          1.8019267098        0.0208229876       -1.8271902534
 N          2.0626880466        1.3992470121       -1.8241363043
 S          2.1945788892        2.2080650560       -0.3685428513
 O          0.8938757681        2.4113709789        0.2191448179
 O          2.9310003454        3.4106946220       -0.6959347988
 C          3.2022478577        1.1476123246        0.6540736263
 C          4.5129358386        0.9510837235        0.2625205679
 C          5.3166438859        0.1007534614        1.0030092272
 C          4.7975301568       -0.5417761059        2.1171398227
 C          3.4832485049       -0.3293260867        2.5017587630
 C          2.6751445939        0.5237295113        1.7658665444
 H          1.6470719591        0.6996433749        2.0439183211
 H          3.0709518059       -0.8259557404        3.3659148993
 H          5.4195736928       -1.2100170915        2.6913605626
 H          6.3409214760       -0.0617364729        0.7090135419
 H          4.8833531561        1.4759550390       -0.6029451833
 H          2.7351790693        1.7160225746       -2.5061401314
 H          2.9095764479       -0.4039554752       -3.6146429891
 H          2.3923860773       -2.8134709330       -3.5478285386
 H          1.0191521240       -3.7505302693       -1.7446432249
 C         -0.0934650841       -2.3459197397        0.4107673888
 H          0.5163463665       -2.1943703842        1.3179990168
 C         -0.4307679588       -3.8287793583        0.3651481920
 C         -1.7240863605       -4.3482864382        0.9171682203
 C         -1.4689741651       -4.3891693328       -0.5581273941
 H         -1.2808929726       -5.3489660607       -1.0170077206
 H         -1.9956724003       -3.6939773753       -1.1916618261
 H         -2.4342154594       -3.6253483184        1.2928564822
 H         -1.7094333541       -5.2747663202        1.4717091034
 H          0.4433932723       -4.4472299440        0.5439506752
 O         -1.9473236889       -1.4666645992       -1.6751363604
