  62
        -98.94124267
 C          2.4810958002        1.3576528112       -0.0265045929
 C          3.2462307887        0.7130196865        0.9811135371
 C          4.1216280056       -0.3773512302        0.5406421350
 C          4.1669858207       -0.7080507980       -0.7622033467
 C          5.0281847519       -1.7773625280       -1.3775550287
 C          4.4317768073       -3.1887190696       -1.2878783215
 C          4.4536683183       -3.8168591505        0.1062085697
 H          4.2165350357       -4.8755409817       -0.0160454191
 H          5.4620818788       -3.7537348330        0.5162421162
 C          3.4542543257       -3.1999299980        1.0950146578
 H          2.6988809068       -2.6313678045        0.5462543250
 H          2.9255842809       -3.9965046984        1.6237002592
 C          4.0849518747       -2.2945890224        2.1533993339
 H          3.2825752735       -1.8800388603        2.7690589271
 H          4.7356600728       -2.8867749544        2.8006332405
 C          4.8973442235       -1.1253278725        1.5822824369
 H          5.8379168622       -1.4876995922        1.1679925152
 H          5.1157904206       -0.4299848945        2.3963587838
 H          3.4035784277       -3.1590222358       -1.6569065842
 H          5.0074556892       -3.8287377878       -1.9605552454
 H          6.0133430709       -1.7674927613       -0.9102602550
 H          5.1401366889       -1.5173980275       -2.4324155645
 O          3.4225758779       -0.0672618805       -1.6999666015
 C          2.5499373777        0.9614449058       -1.3622400177
 O          1.9231182894        1.4159245125       -2.3388725755
 O          3.2082021340        1.0481230628        2.1948146894
 C          1.5831891670        2.4962316029        0.4285719214
 C          0.1809645168        2.0042402760        0.6806799693
 C         -0.4318537070        2.1800014463        1.9153680042
 C         -1.7111372607        1.7011675539        2.1408962699
 C         -2.4045341553        1.0418209468        1.1418535675
 C         -1.7978865282        0.8545561034       -0.0934728139
 C         -0.5162783327        1.3348330118       -0.3165163872
 H         -0.0470112779        1.1846134649       -1.2781724311
 N         -2.4951489267        0.1857461734       -1.1186147894
 S         -3.0547621042       -1.3607756925       -0.7679571322
 O         -2.2416726601       -1.9981484028        0.2430000066
 O         -3.1445242921       -2.0365735050       -2.0439498940
 C         -4.6989011640       -1.0783392030       -0.1454065958
 C         -5.5945934547       -0.4114091394       -0.9584059992
 C         -6.8794717975       -0.1835544561       -0.4922794065
 C         -7.2454713647       -0.6260371386        0.7704053421
 C         -6.3355523966       -1.2971021496        1.5729160111
 C         -5.0481245297       -1.5276678734        1.1129379586
 H         -4.3047551348       -2.0398407304        1.7029218509
 H         -6.6219679502       -1.6408658550        2.5538547634
 H         -8.2460648998       -0.4471800928        1.1310315256
 H         -7.5898596229        0.3376168646       -1.1135479407
 H         -5.2701495106       -0.0885567432       -1.9335670530
 H         -1.9918302929        0.1806184160       -1.9951856659
 H         -3.4005442397        0.6663329421        1.3109890691
 H         -2.1737265887        1.8429095694        3.1055918773
 H          0.1086619373        2.6799089622        2.7057537768
 H          2.0033409761        2.8030332151        1.3994182273
 C          1.6430443830        3.7066202938       -0.4943302475
 C          0.4839081519        4.2015783709       -1.3017922769
 C          0.9434571617        4.9756685370       -0.1053615303
 H          1.4519764067        5.9156909900       -0.2558848963
 H          0.3201166975        4.9442091659        0.7755927032
 H          0.6941332200        4.5887586250       -2.2872455375
 H         -0.4529377216        3.6714946976       -1.2358216839
 H          2.6210835431        3.8128567674       -0.9531403071
