  62
        -98.94345678
 C         -1.8589173922        0.2819653823        0.2415823211
 C         -2.9778009392        0.5101417898        1.0768103572
 C         -4.2809961058        0.5726827893        0.4021405040
 C         -4.3357337013        0.4325938540       -0.9353288162
 C         -5.6001373304        0.4266109209       -1.7438837399
 C         -6.1503207159       -0.9973425276       -1.9061376789
 C         -6.2399163589       -1.7782812276       -0.5950733896
 H         -6.6681631121       -2.7557226416       -0.8273483101
 H         -5.2310905444       -1.9516693296       -0.2136973949
 C         -7.0817335466       -1.0973226199        0.4930312109
 H         -7.7237456651       -0.3382472687        0.0446097067
 H         -7.7340741230       -1.8443116296        0.9502786021
 C         -6.2662531900       -0.4669374667        1.6234470630
 H         -5.5553808702       -1.1989940368        2.0149569391
 H         -6.9519164399       -0.2105192959        2.4355172616
 C         -5.4937725292        0.8069694223        1.2583742654
 H         -6.1683639980        1.5233500738        0.7848905035
 H         -5.1225368880        1.2479078757        2.1883415934
 H         -7.1397230133       -0.9347437034       -2.3628677726
 H         -5.4954285585       -1.5456963295       -2.5870520973
 H         -6.3396043306        1.0594875841       -1.2569700903
 H         -5.3785447362        0.8356771467       -2.7310248758
 O         -3.2366887134        0.2324018361       -1.7064825595
 C         -1.9722686905        0.1446680031       -1.1421101041
 O         -1.0550852225       -0.0495528062       -1.9609912283
 H          2.1859724519       -0.0023403986        0.2080730595
 C          1.7773181922        0.9780848426        0.0282195249
 C          0.4437460446        1.2414804717        0.3012631343
 C         -0.0405398256        2.5267390284        0.0708735773
 C          0.7805452113        3.5111997569       -0.4421176127
 C          2.1106427502        3.2434001007       -0.7141482629
 C          2.6104107105        1.9710849333       -0.4700723815
 N          3.9530927752        1.6653917962       -0.7365852481
 S          4.8218296348        0.7238531073        0.3393012269
 O          4.3732161591        0.9143631983        1.6986506887
 O          6.2068479356        1.0548345570        0.0769881952
 C          4.5331647853       -0.9551490734       -0.1766114719
 C          4.4598309686       -1.2413118741       -1.5254129927
 C          4.2858765239       -2.5579525592       -1.9207848207
 C          4.1984917708       -3.5619301190       -0.9681684513
 C          4.2798982349       -3.2588123725        0.3820074205
 C          4.4489598212       -1.9429474955        0.7844276662
 H          4.5055921962       -1.6613679311        1.8239001291
 H          4.2116200928       -4.0404264412        1.1221613945
 H          4.0646023693       -4.5859303490       -1.2795786273
 H          4.2186303699       -2.7970071266       -2.9699518833
 H          4.5292925974       -0.4377191255       -2.2393175433
 H          4.5036633620        2.4369169720       -1.0844190760
 H          2.7555166578        4.0125237689       -1.1115866150
 H          0.3851369540        4.4992513326       -0.6246074450
 H         -1.0765377704        2.7431142508        0.2938515583
 C         -0.4808805130        0.1926831441        0.8686121243
 H         -0.6294844947        0.4179890202        1.9361210429
 C          0.0571765998       -1.2177934078        0.7411139626
 C          0.9640804582       -1.7859221944        1.7900627163
 C         -0.4498774378       -2.2693952142        1.6804964930
 H         -0.6277541141       -3.2625895549        1.2967436210
 H         -1.1585492320       -1.9583698875        2.4343554551
 H          1.7565479776       -2.4486188118        1.4766891065
 H          1.2248553633       -1.1513959928        2.6240690940
 H          0.2247578402       -1.5048950959       -0.2911525772
 O         -2.8895849121        0.6608678027        2.3259344302
