  62
        -98.93636789
 C         -1.5770303293       -0.0173708563        0.7697851679
 C         -2.8324686252        0.2958408202        1.3410706181
 C         -4.0127380916       -0.2289111654        0.6382258197
 C         -3.8378209118       -0.9636700498       -0.4754940469
 C         -4.9389522110       -1.4980113274       -1.3469059215
 C         -5.5063882476       -0.3679925583       -2.2296185511
 C         -6.9602050678       -0.0026458210       -1.9291646114
 H         -7.1774212585        0.9313826791       -2.4518069549
 H         -7.6131516126       -0.7724476201       -2.3458588495
 C         -7.3155280345        0.1607545564       -0.4481344146
 H         -8.2806150517        0.6703227957       -0.4072226574
 H         -7.4633330949       -0.8208569514        0.0044991135
 C         -6.3081899909        0.9461225431        0.4016387003
 H         -6.8679548537        1.5688794379        1.1025636439
 H         -5.7214491901        1.6205723204       -0.2225476400
 C         -5.3576224973        0.0712057708        1.2404129738
 H         -5.1344420791        0.5955470548        2.1744007726
 H         -5.8585732290       -0.8650166386        1.5017940831
 H         -5.4370635833       -0.6563984478       -3.2795388997
 H         -4.8747072573        0.5140427999       -2.1045956003
 H         -5.7219260021       -1.9297567459       -0.7275249822
 H         -4.5096487171       -2.2849246816       -1.9671079150
 O         -2.6137708157       -1.2461213131       -0.9914934912
 C         -1.4523754391       -0.7800854099       -0.3913340810
 O         -0.4042851927       -1.1106987413       -0.9746654301
 O         -2.9605587527        0.9863922491        2.3886504655
 C         -0.3153765450        0.5013561991        1.4365136032
 C          0.4369600858        1.3826550812        0.4711933268
 C         -0.2242240499        2.4641186814       -0.1067426887
 C          0.4188295920        3.2768125303       -1.0192607378
 C          1.7321546125        3.0276913300       -1.3788603593
 C          2.4020640871        1.9529492126       -0.8066484233
 C          1.7557999171        1.1468422977        0.1215757374
 H          2.2940159641        0.3293720491        0.5670849596
 N          3.7111132061        1.6516017489       -1.1880180999
 S          4.7501724873        0.7269054440       -0.2781162449
 O          4.7415624797        1.1190704762        1.1122035061
 O          6.0214951684        0.8577699853       -0.9577299160
 C          4.1540508260       -0.9419498924       -0.4489492362
 C          3.7277037863       -1.3788356287       -1.6865289733
 C          3.2695595823       -2.6798347285       -1.8144797799
 C          3.2488646212       -3.5181645191       -0.7108317461
 C          3.6870934187       -3.0666751768        0.5243243295
 C          4.1460173485       -1.7665251467        0.6583789436
 H          4.4866601624       -1.3692709511        1.6017921397
 H          3.6673891962       -3.7200362706        1.3822462310
 H          2.8839860117       -4.5281710884       -0.8127617511
 H          2.9211471328       -3.0332246230       -2.7714765416
 H          3.7475907984       -0.7004583553       -2.5231021629
 H          4.1677542808        2.3020748285       -1.8072305914
 H          2.2318309363        3.6554605969       -2.1005663730
 H         -0.1056631688        4.1119871326       -1.4589938719
 H         -1.2530943754        2.6538182928        0.1677857355
 H         -0.6605477860        1.1239546690        2.2750519176
 C          0.5055897829       -0.6458606830        1.9858160484
 C          1.4480697340       -0.4141223667        3.1273559751
 C          0.1825684286       -1.1862210716        3.3452996484
 H          0.2488004486       -2.2517340813        3.5051567406
 H         -0.6201654998       -0.7118826495        3.8907730511
 H          2.3864301966       -0.9471876657        3.1387734160
 H          1.5118164639        0.5866621868        3.5272140040
 H          0.7941005596       -1.3584061329        1.2205928710
