  62
        -98.94030101
 C         -1.4984406850       -1.6830135587       -0.1818329467
 C         -1.4188387898       -0.3161190641       -0.5347734249
 C         -2.6945105735        0.4239505856       -0.5837827597
 C         -3.8415629006       -0.2127262178       -0.2833238282
 C         -5.2779578819        0.2683274329       -0.2782482951
 C         -5.6023719875        1.7574604774       -0.3629080663
 C         -5.1997877200        2.5712275170        0.8670914525
 H         -5.3746555890        3.6272149839        0.6500666571
 H         -5.8537466247        2.2903738731        1.6966302609
 C         -3.7583316161        2.3914425567        1.3375007751
 H         -3.6189795271        3.0105782162        2.2278470183
 H         -3.5979050572        1.3545457077        1.6397162727
 C         -2.6848626024        2.7848886350        0.3249580987
 H         -2.8505823701        3.8131030906       -0.0019621112
 H         -1.7187328669        2.7419168442        0.8345814438
 C         -2.5867855478        1.8839563455       -0.9170298756
 H         -1.5932541489        2.0204523453       -1.3533605225
 H         -3.3201030956        2.1632366422       -1.6695113135
 H         -5.1714160319        2.1849817059       -1.2632960608
 H         -6.6883403414        1.8332558857       -0.4662803089
 H         -5.7636205812       -0.2403633755       -1.1184099450
 H         -5.7275329610       -0.1448421408        0.6304129423
 O         -3.8641984451       -1.5369564755        0.0548596959
 C         -2.7109180475       -2.2966957810        0.1242634687
 O         -2.8940218490       -3.4822638423        0.4684397873
 O         -0.3379436767        0.2664333272       -0.8058232130
 C         -0.2341545713       -2.5205107705       -0.0992848029
 C          0.6887004316       -1.9032306448        0.9221003910
 C          0.2716878468       -1.8609469109        2.2509813190
 C          1.0635200855       -1.2808786655        3.2221771841
 C          2.2827662419       -0.7174860880        2.8861849258
 C          2.7064192631       -0.7538515260        1.5636660080
 C          1.9153263031       -1.3519171021        0.5913611011
 H          2.2732156610       -1.3690298784       -0.4235178171
 N          3.9438538966       -0.2049228428        1.1975828465
 S          4.1420805985        0.5838696408       -0.2591471774
 O          4.1810169629       -0.3658619308       -1.3429515076
 O          5.3525836213        1.3588245524       -0.0704817328
 C          2.7704323714        1.7068226126       -0.4554055221
 C          2.2081435401        1.8602664378       -1.7043260696
 C          1.2024841842        2.7962138691       -1.8780467267
 C          0.7745624329        3.5564055896       -0.8024655109
 C          1.3440782574        3.3849694223        0.4490611311
 C          2.3557735307        2.4564767011        0.6265798991
 H          2.8176531014        2.3115539007        1.5899093633
 H          1.0019457869        3.9717982015        1.2870252690
 H         -0.0127016998        4.2816531879       -0.9380244274
 H          0.7513285848        2.9222062043       -2.8496800607
 H          2.5603731530        1.2397218393       -2.5128433173
 H          4.4440573456        0.2598570548        1.9408428608
 H          2.9023621842       -0.2584416263        3.6416052576
 H          0.7280805388       -1.2589870603        4.2481077203
 H         -0.6878525551       -2.2900212012        2.5075878059
 H         -0.5453864002       -3.5081951620        0.2695939974
 C          0.3902700800       -2.6857196656       -1.4679776586
 C          1.3286869645       -3.8247253041       -1.7254785602
 C         -0.0398336802       -3.8273583148       -2.3367254692
 H         -0.1315502515       -3.6607469645       -3.3995717347
 H         -0.7786078705       -4.5065630439       -1.9362278170
 H          2.1817347854       -3.6540363649       -2.3649146569
 H          1.5211376477       -4.5060782709       -0.9103671942
 H          0.5949342145       -1.7400248745       -1.9564790100
