  62
        -98.94626219
 C         -1.2385416492       -1.7547287812       -0.1670923300
 C         -1.4136005392       -0.6706950416       -1.0633995404
 C         -2.7344738795       -0.0196574520       -1.0329852212
 C         -3.6801425396       -0.4647478320       -0.1881396414
 C         -5.0358987599        0.1529159776       -0.0076536821
 C         -5.0183449407        1.2163967480        1.0990909075
 C         -3.8840303910        2.2335227383        0.9668160275
 H         -3.9974494816        2.9555637686        1.7787916872
 H         -2.9245820109        1.7331661487        1.1208343981
 C         -3.8484592608        2.9769801778       -0.3754346527
 H         -4.8134364505        2.8862940373       -0.8768625331
 H         -3.6795961012        4.0384185680       -0.1819013631
 C         -2.7370266403        2.5162158179       -1.3203411421
 H         -1.7835545204        2.5138274184       -0.7842425918
 H         -2.6549160502        3.2478677276       -2.1295980724
 C         -2.9469674395        1.1397427776       -1.9650447517
 H         -3.9405712493        1.0939256570       -2.4167233521
 H         -2.2027691592        1.0274679275       -2.7590657714
 H         -5.9772305109        1.7382093877        1.0913236169
 H         -4.9132735509        0.7121205884        2.0625757477
 H         -5.3558756897        0.5977257071       -0.9479120924
 H         -5.7385015497       -0.6349223326        0.2696975879
 O         -3.4854685996       -1.5202503716        0.6434641091
 C         -2.2655992394       -2.1732291812        0.6837340198
 O         -2.2192640793       -3.1142395609        1.5029651602
 H          0.5053840199        0.1266256497        0.4428552700
 C          1.0715663799       -0.4997225299        1.1132101304
 C          0.9491183904       -1.8787273099        1.0412757309
 C          1.6747199904       -2.6613622493        1.9324283715
 C          2.4986171698       -2.0733398187        2.8747040115
 C          2.6232525893       -0.6972434886        2.9399999311
 C          1.8996734093        0.0946704108        2.0552361605
 N          1.9906866488        1.4900570108        2.1056421100
 S          1.7505970590        2.4119999402        0.7345169595
 O          2.4293110885        3.6581521906        1.0309234293
 O          0.3428549391        2.5272340196        0.4513173290
 C          2.6098890698        1.5665588900       -0.5799494398
 C          1.9988058803        1.4117982093       -1.8059747000
 C          2.6845467509        0.7569131192       -2.8172706895
 C          3.9623096910        0.2739501597       -2.5866635988
 C          4.5674358805        0.4477861904       -1.3509284787
 C          3.8882172399        1.1020583206       -0.3371556792
 H          4.3356725895        1.2534110011        0.6316357609
 H          5.5621682205        0.0716244908       -1.1740919681
 H          4.4889298015       -0.2419831504       -3.3742064084
 H          2.2061929013        0.6176758687       -3.7734416196
 H          0.9918720502        1.7699805289       -1.9441014705
 H          2.7047102185        1.8641422513        2.7118472001
 H          3.2633270789       -0.2357584981        3.6761236611
 H          3.0513729998       -2.6913791782        3.5654227820
 H          1.5758245007       -3.7355588894        1.8943725818
 C          0.0653789610       -2.5177582606       -0.0053645992
 H         -0.2142934088       -3.5158987706        0.3605613911
 C          0.8572422316       -2.6813195609       -1.2891316988
 C          1.7441595020       -3.8764935106       -1.4589788481
 C          0.4805180423       -3.7607015614       -2.2564670286
 H          0.5468931926       -3.5485250417       -3.3125626486
 H         -0.3505598176       -4.3987993515       -1.9921796086
 H          1.7701754420       -4.6036858303       -0.6618851178
 H          2.6866792122       -3.7466002305       -1.9674576178
 H          1.1958979514       -1.7401397709       -1.7021980691
 O         -0.5358474091       -0.2481456316       -1.8588874803
