  62
        -98.94577256
 C         -2.1832997098       -1.1763671605        0.2046326594
 C         -1.8585628803       -0.2582157899       -0.8238291802
 C         -2.6379693709        0.9899350497       -0.8342110896
 C         -3.5858664210        1.1854346288        0.1006017206
 C         -4.4243949316        2.4240401184        0.2269938012
 C         -3.7675970220        3.4504758783        1.1604266817
 C         -2.2973169022        3.7214368191        0.8409801617
 H         -1.9446427825        4.4806430790        1.5427069420
 H         -1.7181741217        2.8150864993        1.0347155712
 C         -2.0370266825        4.1919094599       -0.5970038181
 H         -2.9651814827        4.5530654397       -1.0412308379
 H         -1.3417136629        5.0335725502       -0.5684550078
 C         -1.4152549420        3.1316766606       -1.5076530987
 H         -0.5331104818        2.7099030508       -1.0199584189
 H         -1.0768712224        3.6274492612       -2.4212609985
 C         -2.3405497515        1.9812974104       -1.9245526491
 H         -3.2663030217        2.3878683601       -2.3366430789
 H         -1.8354461213        1.4140570210       -2.7118232294
 H         -4.3316970125        4.3829322680        1.1012074721
 H         -3.8331530317        3.0792944278        2.1860359815
 H         -4.5730916519        2.8582411887       -0.7597678386
 H         -5.3944144414        2.1408432177        0.6391486612
 O         -3.8602935305        0.2842386783        1.0786002202
 C         -3.1663562899       -0.9136213514        1.1575671196
 O         -3.5083062094       -1.6448706120        2.1098268193
 O         -0.9693938403       -0.4656987691       -1.6873220903
 C         -1.4617980092       -2.5087224902        0.2846221388
 C          0.0321497608       -2.3216853695        0.3988847787
 C          0.9435761011       -3.1720814688       -0.2152695817
 C          2.3052158810       -2.9736984082       -0.0636810317
 C          2.7892065806       -1.9218206483        0.6913835087
 C          1.8864912002       -1.0605344190        1.3024305492
 C          0.5232297203       -1.2726115396        1.1650386192
 H         -0.1746226400       -0.6019138802        1.6522016695
 N          2.3692452897        0.0334002709        2.0402562796
 S          3.6180758593        0.9258421418        1.3678404499
 O          4.8802342696        0.3278184622        1.7285835096
 O          3.4114191086        2.2781876915        1.8393247606
 C          3.3989524392        0.8329497725       -0.4008178501
 C          4.4593812293        0.4551257234       -1.1992837603
 C          4.2684760392        0.3693075539       -2.5690134304
 C          3.0242222690        0.6498103635       -3.1120581601
 C          1.9688672089        1.0300779726       -2.2974398599
 C          2.1588371890        1.1283513721       -0.9296578299
 H          1.3506511089        1.4147257214       -0.2748645497
 H          0.9917050388        1.2220830123       -2.7097012497
 H          2.8712037490        0.5686312239       -4.1765933402
 H          5.0866672493        0.0747370446       -3.2063543906
 H          5.4044440994        0.2291917236       -0.7324875905
 H          1.6461447595        0.6367960103        2.4028849300
 H          3.8460876705       -1.7520542779        0.8200976687
 H          2.9998157513       -3.6452453877       -0.5441386021
 H          0.5865408115       -3.9927733187       -0.8150885921
 H         -1.8134337188       -2.9891265308        1.2101985386
 C         -1.8620192288       -3.3746464899       -0.8941110216
 C         -1.9744720181       -4.8612392700       -0.7447551923
 C         -3.2110346685       -4.0263720405       -0.8825814918
 H         -3.7697853685       -4.0748851704       -1.8051386118
 H         -3.8269044085       -3.8722330012       -0.0079820317
 H         -1.6867592478       -5.4868985395       -1.5762805926
 H         -1.7587224878       -5.2861900203        0.2240106875
 H         -1.5062856791       -2.9784175293       -1.8381695414
