  62
        -98.94475159
 C         -1.6247974904       -1.4466508191       -0.2457662712
 C         -2.7544440214       -0.8861168626        0.3883875110
 C         -3.2422426796        0.3964384860       -0.1452247507
 C         -2.6003437848        0.9682610264       -1.1814875975
 C         -2.8713354810        2.2546970028       -1.9334071332
 C         -3.8088244215        3.3129830670       -1.3589128687
 C         -3.2965859608        3.9982009094       -0.0924876412
 H         -4.0818286122        4.6612523666        0.2784699284
 H         -2.4336500389        4.6157378864       -0.3548508803
 C         -2.8608548253        3.0663887806        1.0361857327
 H         -2.5277386972        3.6890997616        1.8720212878
 H         -1.9927911895        2.4812993033        0.7212152763
 C         -3.9452193317        2.1267611928        1.5615941792
 H         -4.8217469566        2.7074379802        1.8571984827
 H         -3.5485216842        1.6395539599        2.4568096404
 C         -4.3925319206        1.0190562354        0.5919935662
 H         -5.1455774623        1.3814377874       -0.1037112377
 H         -4.8479050071        0.2184865395        1.1827265104
 H         -4.7963915346        2.8931587267       -1.1916075450
 H         -3.9171783803        4.0828020720       -2.1280128827
 H         -3.2480610995        1.9543552619       -2.9177159002
 H         -1.8872525232        2.7048335339       -2.1003097384
 O         -1.5348351290        0.3692683030       -1.7860264371
 C         -0.9951307504       -0.8111385103       -1.3132466526
 O          0.0208171132       -1.1951497344       -1.9261974071
 O         -3.3319087762       -1.4318839906        1.3694140772
 C         -1.0017309655       -2.7109475275        0.3162345441
 C          0.4267832422       -2.4292504196        0.7153025693
 C          1.4718663219       -3.3215439640        0.5102004778
 C          2.7665747338       -2.9814598603        0.8646211538
 C          3.0519011543       -1.7390916087        1.4011935463
 C          2.0110156993       -0.8447749523        1.6199024515
 C          0.7114757052       -1.2073677172        1.3116488437
 H         -0.0829090828       -0.4987247241        1.4957536762
 N          2.2362792013        0.4566857296        2.1207326335
 S          1.9324209529        1.7022050672        1.0343959553
 O          2.2997567142        2.9138063092        1.7366872922
 O          0.5760094019        1.6263413384        0.5603280765
 C          3.1034768776        1.4034634522       -0.2779816190
 C          4.3260470255        2.0461827387       -0.2204122070
 C          5.2836156120        1.7575980834       -1.1784265428
 C          5.0079384053        0.8244976330       -2.1670815965
 C          3.7782153830        0.1864541649       -2.2080088738
 C          2.8116311436        0.4730481956       -1.2549921973
 H          1.8464027847       -0.0099825072       -1.2754367941
 H          3.5551229624       -0.5395606381       -2.9733266460
 H          5.7542671629        0.5933831386       -2.9107341717
 H          6.2393112901        2.2556880472       -1.1492953122
 H          4.4925820341        2.7648620941        0.5659692542
 H          3.1614560608        0.5857683573        2.5088488439
 H          4.0659997746       -1.4599425700        1.6449739653
 H          3.5675537157       -3.6852339957        0.6978819600
 H          1.2733872582       -4.2821849251        0.0635500982
 H         -1.5789300977       -2.9473602647        1.2229796337
 C         -1.1352125581       -3.8593254413       -0.6622887427
 C         -1.2656941232       -5.2680113907       -0.1666854557
 C         -2.4494615963       -4.5715953104       -0.7653030236
 H         -2.7941387805       -4.8796294836       -1.7409384603
 H         -3.2407347592       -4.2445557820       -0.1065386253
 H         -0.7994077063       -6.0595011758       -0.7337942269
 H         -1.2598007402       -5.4253979575        0.9013091438
 H         -0.5864656972       -3.6855280483       -1.5811682841
