  62
        -98.93443384
 C         -2.3248500376        0.6499331648        0.0949940945
 C         -3.5026348163        0.9850517298       -0.6092368712
 C         -4.7747163658        0.4694435916       -0.0672036064
 C         -4.7437134482       -0.2742206777        1.0546414553
 C         -5.8959811746       -0.9370691882        1.7613140723
 C         -6.3769374902       -2.2090564363        1.0434934338
 C         -6.4903273491       -2.0883703316       -0.4740622134
 H         -5.5213153430       -1.7969336657       -0.8834749039
 H         -6.7234377598       -3.0806037776       -0.8694116726
 C         -7.5636149561       -1.1237001711       -0.9725952478
 H         -8.5374284769       -1.4477035680       -0.5986670780
 H         -7.5852311138       -1.1976459057       -2.0629207222
 C         -7.3665619330        0.3470713953       -0.6003350980
 H         -7.6391594785        0.5286513433        0.4357200709
 H         -8.0601445090        0.9327725676       -1.2108364305
 C         -5.9715510736        0.8962665393       -0.8829960104
 H         -5.7107176990        0.6919959444       -1.9277188869
 H         -6.0056739542        1.9897554161       -0.8046376124
 H         -5.6632668481       -3.0076165562        1.2601805363
 H         -7.3429750050       -2.4968559777        1.4614558629
 H         -5.5364979537       -1.2135100422        2.7548538242
 H         -6.7109408818       -0.2308202072        1.8885666317
 O         -3.5801264534       -0.5705917291        1.7027418066
 C         -2.3511601526       -0.1266646121        1.2522264662
 O         -1.3840735906       -0.4810371132        1.9532982946
 O         -3.4983806672        1.6810574526       -1.6614567265
 C         -0.9902534837        1.1564198167       -0.4173235237
 C         -0.0543418983        0.0052468768       -0.6907560308
 C         -0.5111489392       -1.0711745560       -1.4481123140
 C          0.3177425561       -2.1384742279       -1.7318407470
 C          1.6269979815       -2.1492017166       -1.2830788729
 C          2.0940716706       -1.0798937276       -0.5293152294
 C          1.2543476243       -0.0132166358       -0.2370598299
 H          1.6452894235        0.8005955993        0.3499809967
 N          3.4105417689       -1.0678645969       -0.0418649904
 S          4.2198266214        0.4095193547        0.0612605907
 O          3.8706077389        1.0536226711        1.3022333890
 O          4.0007619517        1.1784505945       -1.1431063580
 C          5.9109169727       -0.1538705464        0.1322857193
 C          6.4323345855       -0.5460502356        1.3507718263
 C          7.7373312215       -1.0096042266        1.4027927792
 C          8.4949044976       -1.0734526731        0.2426266981
 C          7.9587035309       -0.6749159461       -0.9726321238
 C          6.6538814839       -0.2112882334       -1.0319490940
 H          6.1987312706        0.1186786114       -1.9519508768
 H          8.5513201698       -0.7223975213       -1.8719808908
 H          9.5106659500       -1.4334176344        0.2865784907
 H          8.1585555809       -1.3175020234        2.3462035518
 H          5.8088328474       -0.4699733747        2.2264693720
 H          3.9903980950       -1.7879086630       -0.4502777736
 H          2.2767859812       -2.9813285669       -1.5077548028
 H         -0.0544532507       -2.9669726379       -2.3157829209
 H         -1.5309198061       -1.0583322814       -1.8089493444
 H         -1.2113622080        1.6493452551       -1.3766490683
 C         -0.4182559274        2.1860514667        0.5339747613
 C          0.5121216065        3.2465653606        0.0286506455
 C         -0.8826897655        3.6072959299        0.4406639988
 H         -1.0237047909        4.1649280820        1.3543218985
 H         -1.5990010728        3.8438605375       -0.3325689388
 H          1.3362163537        3.5490402024        0.6580101782
 H          0.7502241598        3.2416250434       -1.0246412854
 H         -0.2378549433        1.7821455479        1.5247880090
