  62
        -98.94416935
 C         -2.2402936168       -0.8366900924        0.4260733680
 C         -2.4707872374       -0.0294288828       -0.7144562131
 C         -3.3365047957        1.1376766415       -0.5007024881
 C         -3.8088448995        1.4057426796        0.7301603329
 C         -4.6834588782        2.5699892893        1.1094865605
 C         -6.1787550794        2.3353246440        0.8542686648
 C         -6.5985538182        2.3533705437       -0.6161021048
 H         -7.6893293297        2.3955665758       -0.6365216225
 H         -6.2288404858        3.2647885339       -1.0868747213
 C         -6.1370191125        1.1311198080       -1.4221341534
 H         -6.9684260237        0.7570963408       -2.0237618559
 H         -5.8522199496        0.3291983623       -0.7370636911
 C         -4.9739518676        1.4030404012       -2.3763485111
 H         -4.7056746388        0.4634836143       -2.8658514100
 H         -5.2908511053        2.1070308375       -3.1488992467
 C         -3.7155788013        1.9583107083       -1.6963003158
 H         -2.8884306267        1.9069090228       -2.4085026247
 H         -3.8693962254        2.9990381412       -1.4119712467
 H         -6.4639447772        1.3811445154        1.3034275750
 H         -6.7254217395        3.1243011888        1.3760000236
 H         -4.3575992053        3.4631354655        0.5755590247
 H         -4.5382309976        2.7322391041        2.1798392969
 O         -3.5159813792        0.6341927195        1.8122990166
 C         -2.7452438770       -0.5107228561        1.6837229921
 O         -2.5716624663       -1.1360671806        2.7510761326
 O         -1.9806096592       -0.2663497288       -1.8479555323
 C         -1.3928983929       -2.0893693855        0.3051214208
 C          0.0011661742       -1.7435043236       -0.1619090233
 C          0.6907472533       -2.4849709466       -1.1121431706
 C          1.9784026967       -2.1319250290       -1.4779369009
 C          2.6056236993       -1.0399705907       -0.9077202217
 C          1.9300316823       -0.2979613260        0.0525001349
 C          0.6431605220       -0.6575354668        0.4207802789
 H          0.1204222011       -0.0802702850        1.1750021624
 N          2.5588101621        0.8195573915        0.6342037494
 S          4.0528844811        0.5709613514        1.3642525672
 O          4.1737522333       -0.7767578149        1.8712461581
 O          4.1830855860        1.6367157444        2.3340935940
 C          5.2237715103        0.8359151220        0.0497044930
 C          6.1317073834       -0.1536494075       -0.2727493057
 C          7.0401460972        0.0780758380       -1.2939660309
 C          7.0247628946        1.2885111273       -1.9699134138
 C          6.1080480970        2.2730447550       -1.6317228178
 C          5.1980312585        2.0484788005       -0.6111085385
 H          4.4722798289        2.7874215287       -0.3148402581
 H          6.0991117314        3.2130497056       -2.1596135922
 H          7.7318146778        1.4662252078       -2.7647449705
 H          7.7539291944       -0.6855595906       -1.5579683087
 H          6.1015001620       -1.0808350936        0.2768647227
 H          1.9545312672        1.3411669300        1.2530215283
 H          3.6049244287       -0.7577250854       -1.1960210446
 H          2.4996872861       -2.7146194128       -2.2218625429
 H          0.2190450153       -3.3392793142       -1.5689841994
 H         -1.3114553189       -2.5010786090        1.3226473880
 C         -2.0908028630       -3.1045623550       -0.5767796492
 C         -1.8993634610       -4.5718026231       -0.3416722019
 C         -3.2034978559       -3.9210644482        0.0061750776
 H         -4.0670164426       -4.1303573695       -0.6071750717
 H         -3.4373586678       -3.7653922460        1.0498049359
 H         -1.8706726080       -5.2320108333       -1.1953648710
 H         -1.2506257900       -4.8684180897        0.4688093484
 H         -2.2061289678       -2.7576278584       -1.5971029301
