  62
        -98.93649602
 C          1.4264582832        1.2708897425        0.6816777096
 C          2.4430409354        1.0526961091       -0.2766168739
 C          2.9968500560       -0.3168682253       -0.3400513441
 C          2.5181670503       -1.2789101508        0.4675355454
 C          2.8307627447       -2.7582632962        0.5484088186
 C          4.1152241999       -3.3232327952       -0.0535483541
 C          5.4045616804       -2.8321082921        0.6025536805
 H          5.4514215304       -3.2273355787        1.6202911254
 H          6.2470141584       -3.2467814054        0.0445907893
 C          5.5628485200       -1.3159351169        0.6858183776
 H          4.8033448121       -0.9045174960        1.3537002312
 H          6.5366505134       -1.1060233190        1.1364040059
 C          5.4992793505       -0.5774389326       -0.6502723945
 H          5.8086408111        0.4551867081       -0.4686213213
 H          6.2101081706       -1.0210595349       -1.3499566602
 C          4.1137156272       -0.5302412388       -1.3209366421
 H          4.0952087467        0.3276845707       -1.9995358992
 H          3.9272039868       -1.4198724396       -1.9189418631
 H          4.1417878161       -3.1390521020       -1.1236774575
 H          4.0675091550       -4.4077176432        0.0791317047
 H          2.7927099647       -3.0115800760        1.6127916082
 H          1.9765953894       -3.2596422757        0.0777226580
 O          1.5391127720       -1.0211656152        1.3811817939
 C          0.9665609381        0.2279980026        1.4896305305
 O          0.0631434081        0.3018503389        2.3490730827
 H         -0.2717871417        1.0483901175       -1.1699876649
 C         -1.0741595213        1.5087524011       -0.6122114275
 C         -0.7881662141        2.3308494487        0.4678393388
 C         -1.8456310095        2.8962220357        1.1705872892
 C         -3.1547164927        2.6413113020        0.8012689357
 C         -3.4346803536        1.7847237135       -0.2485089848
 C         -2.3836544432        1.2053526541       -0.9482518303
 N         -2.6037258574        0.2613160838       -1.9763374874
 S         -2.1285112555       -1.3046072507       -1.5930634301
 O         -0.7212254801       -1.3332466091       -1.2923218409
 O         -2.5643706203       -2.1162971434       -2.7093946252
 C         -3.1039675881       -1.7016381881       -0.1527987418
 C         -2.6823784953       -1.2808087890        1.0925233590
 C         -3.5001263596       -1.5193035947        2.1871166823
 C         -4.7148107498       -2.1656621635        2.0203601510
 C         -5.1224375152       -2.5833719357        0.7619937649
 C         -4.3138004134       -2.3445206751       -0.3367853323
 H         -4.5863452151       -2.6528404419       -1.3333875082
 H         -6.0659459058       -3.0890335453        0.6342278040
 H         -5.3453694484       -2.3453190426        2.8767836390
 H         -3.1732848514       -1.1904366235        3.1605986704
 H         -1.7317863853       -0.7824502672        1.2052344732
 H         -3.5602429474        0.2379340707       -2.3052390053
 H         -4.4548046633        1.5536555442       -0.5160859313
 H         -3.9655987179        3.0902314852        1.3538229082
 H         -1.6371987105        3.5205925424        2.0268584121
 C          0.6479297894        2.5679372068        0.8689799669
 H          0.6481719918        2.7767755456        1.9528548323
 C          1.2481398352        3.7795623605        0.1756849835
 C          0.7881721643        4.2469123543       -1.1689539157
 C          0.4710560348        5.0565485368        0.0507285499
 H          0.9954891846        5.9879925175        0.2005431791
 H         -0.5530246002        5.0639469706        0.3904683816
 H          1.5375145372        4.6032287159       -1.8588173366
 H         -0.0148107588        3.7035893193       -1.6443803192
 H          2.3082119936        3.8766593233        0.3778073715
 O          2.8890414347        1.9280279815       -1.0627987363
