  62
        -98.93855107
 C          2.7812377287        0.2339844989        0.0287316603
 C          2.1305808668        0.9719001323        1.0475559980
 C          1.7217008348        2.3394495253        0.6903616173
 C          1.9614136112        2.8058163261       -0.5470555763
 C          1.5674797560        4.1656969529       -1.0455318118
 C          0.1885112253        4.1524982595       -1.7186372650
 C         -0.9064672332        3.4678142058       -0.8998705931
 H         -0.7041659460        2.3946940639       -0.8531888616
 H         -1.8404535143        3.5852218531       -1.4555004423
 C         -1.0864265883        4.0213206877        0.5207716130
 H         -2.1555069394        4.1232358085        0.7200920517
 H         -0.6484065636        5.0180074426        0.5892122878
 C         -0.5071899313        3.1343706067        1.6248538761
 H         -0.8286841718        2.1012535004        1.4658348800
 H         -0.9171136711        3.4668666033        2.5824028547
 C          1.0216832144        3.1423585754        1.7505923956
 H          1.2820731415        2.6719172109        2.7033685281
 H          1.3870527421        4.1711211107        1.7632574479
 H          0.2731323128        3.6275951866       -2.6732174713
 H         -0.1004872982        5.1857627569       -1.9229429897
 H          2.3118029002        4.4887997480       -1.7758235974
 H          1.5673051390        4.8635176622       -0.2100040785
 O          2.5858970187        2.0693756043       -1.5020178220
 C          2.9816270118        0.7688963695       -1.2469185887
 O          3.5158833583        0.1970668988       -2.2195925763
 O          1.8904637793        0.5327646497        2.2033198567
 C          3.2176374777       -1.2153580960        0.1960068169
 C          2.0625321871       -2.1075071445       -0.1823259731
 C          2.1915265513       -3.1245206573       -1.1197621713
 C          1.0863413623       -3.8537066955       -1.5271577801
 C         -0.1721877362       -3.5682312531       -1.0267711128
 C         -0.3044666506       -2.5635641671       -0.0797074800
 C          0.8056136697       -1.8586835850        0.3510291346
 H          0.6866932354       -1.0761984506        1.0860984537
 N         -1.6040801290       -2.1865239802        0.3696653630
 S         -2.2210838474       -1.0715679942       -0.7577959007
 O         -2.4747063045       -1.7922307809       -1.9801396465
 O         -1.3403371497        0.0713882033       -0.8612228754
 C         -3.7653560348       -0.5952299832       -0.0053905822
 C         -4.7892137670       -1.5224416163        0.0342109402
 C         -5.9863882009       -1.1702621797        0.6361170840
 C         -6.1380811995        0.0946842073        1.1852374696
 C         -5.1012250965        1.0138188771        1.1366572287
 C         -3.9001859603        0.6678053541        0.5368852244
 H         -3.0688967300        1.3519693213        0.4705005045
 H         -5.2215103824        1.9970207913        1.5621951455
 H         -7.0712719949        0.3671716390        1.6523207717
 H         -6.7958835650       -1.8810815284        0.6748030777
 H         -4.6270955352       -2.4891499885       -0.4122686392
 H         -1.5341179097       -1.6968018195        1.2552071715
 H         -1.0492902233       -4.0885183576       -1.3748060452
 H          1.2030108552       -4.6352530520       -2.2625722250
 H          3.1606579803       -3.3211088775       -1.5551057840
 H          4.0139037579       -1.3693437821       -0.5493856495
 C          3.8050734308       -1.5219951411        1.5656782356
 C          3.1346918382       -2.4065511552        2.5695684679
 C          4.3531510653       -2.8901526395        1.8463734892
 H          5.2820959835       -2.9740918542        2.3893871283
 H          4.2145744858       -3.6437716835        1.0856943322
 H          3.2186068338       -2.1325845561        3.6099913319
 H          2.1826032409       -2.8428350554        2.3107853133
 H          4.3644114588       -0.6820667028        1.9636423072
