  62
        -98.93510725
 C         -2.3562067853       -1.1273561622       -0.2905918905
 C         -3.6812854890       -1.1789064836        0.2010711895
 C         -4.6184876217       -0.1728604930       -0.3273782657
 C         -4.1706753645        0.7301503548       -1.2171109380
 C         -4.9378991091        1.8691492326       -1.8299113068
 C         -4.7425692083        3.1583025535       -1.0136801862
 C         -5.7256990402        3.3449099453        0.1413608130
 H         -5.3987795588        4.2202244194        0.7074351151
 H         -6.7156893748        3.5668795385       -0.2626156808
 C         -5.8433096729        2.1562867601        1.0989286662
 H         -6.2542781888        2.5248221726        2.0408722793
 H         -4.8495892274        1.7588768402        1.3145772588
 C         -6.7504993425        1.0380881899        0.5644328872
 H         -7.4895404126        0.7780051406        1.3250649198
 H         -7.3087341036        1.4120703373       -0.2935464284
 C         -6.0302605220       -0.2639283867        0.1849658099
 H         -5.9626412098       -0.9111825281        1.0650668507
 H         -6.6336867981       -0.8033305823       -0.5526927865
 H         -3.7185437579        3.1606884449       -0.6304102459
 H         -4.8414463807        4.0153594889       -1.6830066705
 H         -5.9903589131        1.6189432710       -1.9242057532
 H         -4.5212033059        2.0232021346       -2.8273894066
 O         -2.8816349688        0.7519430571       -1.6557598888
 C         -1.9440107291       -0.1640626437       -1.2106694923
 O         -0.8103748839       -0.0203326354       -1.7077027348
 O         -4.0652977351       -2.0272147527        1.0509685854
 C         -1.3455933602       -2.1350893690        0.2301708272
 C         -0.2691227085       -1.3890024700        0.9786051291
 C         -0.6099075734       -0.7446851796        2.1656851693
 C          0.3251826827       -0.0021157307        2.8597618346
 C          1.6214630081        0.1149952744        2.3873993555
 C          1.9700005023       -0.5193700808        1.2037621709
 C          1.0284080904       -1.2713485319        0.5100896098
 H          1.3104960913       -1.7479164403       -0.4153490918
 N          3.2891920850       -0.4277403107        0.7187641107
 S          4.0454699077        1.0819164744        0.7690981272
 O          4.4908631919        1.3238456744        2.1191558715
 O          3.1907931393        2.0983452677        0.1964617397
 C          5.4505786246        0.7746755155       -0.2826117312
 C          6.6063789910        0.2633447592        0.2759537353
 C          7.6854297591       -0.0085169855       -0.5500368635
 C          7.5906031417        0.2325086429       -1.9125220557
 C          6.4240151266        0.7469399117       -2.4584903021
 C          5.3406254189        1.0201014205       -1.6382892940
 H          4.4170899339        1.4277279000       -2.0187427998
 H          6.3533805656        0.9353862201       -3.5177410754
 H          8.4314849499        0.0206929063       -2.5538509397
 H          8.5948122260       -0.4066154886       -0.1298448729
 H          6.6351691188        0.0997867432        1.3404358097
 H          3.3691403040       -0.8226017583       -0.2091027267
 H          2.3577813586        0.7019923518        2.9119298878
 H          0.0454436084        0.4949249341        3.7768417252
 H         -1.6253069456       -0.8261189168        2.5294972087
 H         -1.8967156949       -2.7546887366        0.9512569633
 C         -0.8320364173       -3.0218921585       -0.8834875512
 C         -0.1834105700       -4.3314229353       -0.5507699814
 C         -1.5438907981       -4.3068105379       -1.1781708496
 H         -1.6439370272       -4.6144252993       -2.2082749578
 H         -2.3971779144       -4.5551054970       -0.5643549052
 H          0.6515742926       -4.6615680003       -1.1497819535
 H         -0.1105198834       -4.5985547390        0.4924775271
 H         -0.4516464469       -2.4613518838       -1.7296613560
