  62
        -98.94066921
 C          2.2537829914       -1.0843003207       -0.3853179303
 C          2.5348519204       -0.1697406314        0.6594068579
 C          3.4361306727        0.9390448262        0.3116568906
 C          3.8857667971        1.0758050992       -0.9478771994
 C          4.7811542322        2.1716953303       -1.4587289484
 C          6.2756141795        1.9226501039       -1.2124534672
 C          6.7301240825        2.0757330449        0.2396119118
 H          7.8217511878        2.0914894119        0.2332339722
 H          6.3928644334        3.0385430226        0.6247637553
 C          6.2582904892        0.9518056448        1.1726390020
 H          7.0939493264        0.6175974979        1.7915103707
 H          5.9384358194        0.0942495009        0.5761710884
 C          5.1242471899        1.3469116402        2.1185760535
 H          5.4745677133        2.1168591458        2.8095213822
 H          4.8455871915        0.4685446415        2.7063811782
 C          3.8640200027        1.8633323071        1.4120048838
 H          3.0534750409        1.9076973428        2.1438404149
 H          4.0351574080        2.8662300055        1.0210643451
 H          6.5256597075        0.9208887338       -1.5693163646
 H          6.8294685569        2.6404023201       -1.8218882219
 H          4.6142158828        2.2303655445       -2.5364941945
 H          4.4898464754        3.1223649762       -1.0108064964
 O          3.5461111503        0.2094860313       -1.9389593679
 C          2.7503656548       -0.8928103768       -1.6785439611
 O          2.5566943547       -1.6255325344       -2.6692389929
 H         -0.0386689216       -0.4385584457        1.0963664479
 C         -0.6433104282       -0.9641815056        0.3715013665
 C         -0.0680429851       -1.9798845463       -0.3805118078
 C         -0.8548991142       -2.6434230305       -1.3137670186
 C         -2.1847086476       -2.2987003160       -1.4842376928
 C         -2.7554817305       -1.2906035728       -0.7280874167
 C         -1.9750694454       -0.6165330980        0.2022769135
 N         -2.5454392504        0.4090262325        0.9797085153
 S         -3.3230524865        1.6521710498        0.1591757142
 O         -2.7779603190        1.8326035778       -1.1672991635
 O         -3.2574680700        2.7951619334        1.0436075964
 C         -5.0119421612        1.0964031205        0.0579374204
 C         -5.6372165504        1.0088063028       -1.1703929787
 C         -6.9547949081        0.5804675059       -1.2224541739
 C         -7.6198180044        0.2501797956       -0.0515835189
 C         -6.9781111823        0.3460322760        1.1744600672
 C         -5.6617584218        0.7747138073        1.2336152898
 H         -5.1277797748        0.8664286857        2.1647052506
 H         -7.4985442900        0.0882749045        2.0827310101
 H         -8.6442988511       -0.0841486527       -0.0948616555
 H         -7.4549834997        0.5053737517       -2.1746429868
 H         -5.0776327380        1.2705034304       -2.0544012350
 H         -1.9040015576        0.7877186861        1.6628165978
 H         -3.7897144504       -1.0165164755       -0.8581561045
 H         -2.7837689589       -2.8205050960       -2.2147351518
 H         -0.4125392134       -3.4209488778       -1.9193041773
 C          1.3885894433       -2.3226137552       -0.2024950348
 H          1.6731791340       -2.9918728977       -1.0293939408
 C          1.6823429954       -3.0596847903        1.0984696360
 C          0.7001293678       -3.2014670044        2.2188321195
 C          1.0311077451       -4.3849954256        1.3638170990
 H          1.6272869095       -5.1814446732        1.7825284183
 H          0.2817271721       -4.7150376442        0.6600451311
 H         -0.2735277084       -2.7510046050        2.1090055400
 H          1.0859266006       -3.1612771329        3.2261833418
 H          2.7242774132       -2.9657570572        1.3874754526
 O          2.0672810774       -0.2488207061        1.8254741004
