  62
        -98.93824476
 C          2.4835801463        0.7099627718       -0.0210258048
 C          2.8910760450       -0.4086274413        0.7510428128
 C          4.0236165034       -1.1813760493        0.2325596860
 C          4.5919537877       -0.8246993475       -0.9333365870
 C          5.7387422875       -1.5240601958       -1.6114185860
 C          7.1209532124       -1.1056088281       -1.0917070341
 C          7.4777271836       -1.6270462338        0.3008868854
 H          7.3230332978       -2.7059048940        0.3342749408
 H          8.5445017735       -1.4462752560        0.4471922149
 C          6.7029292060       -0.9584512723        1.4451008097
 H          6.2551043357       -0.0284061147        1.0872983745
 H          7.3951149694       -0.6918180118        2.2470279670
 C          5.6078006434       -1.8282866626        2.0625416865
 H          5.1008884907       -1.2440981098        2.8348946321
 H          6.0588374470       -2.7000281061        2.5418242128
 C          4.5482937927       -2.3127696188        1.0640717706
 H          4.9617561663       -3.0937616820        0.4262897328
 H          3.7092247663       -2.7275966679        1.6278879192
 H          7.8627989860       -1.4840268819       -1.7987423084
 H          7.1814735057       -0.0148496012       -1.0990292784
 H          5.6215898593       -2.6032379127       -1.5086908152
 H          5.6770100165       -1.2661903820       -2.6708356422
 O          4.1575701676        0.2370992820       -1.6592500642
 C          3.1070698032        1.0397198566       -1.2254532332
 O          2.8497415775        1.9798213499       -1.9981841039
 O          2.3320462761       -0.7404314084        1.8312917664
 C          1.3280350922        1.5251310605        0.5312992183
 C          0.0133573521        1.0215969852       -0.0073100564
 C         -0.2146337635        0.9137272174       -1.3758672718
 C         -1.4316960301        0.4572685512       -1.8478311714
 C         -2.4392865616        0.0918501828       -0.9717142454
 C         -2.2203546607        0.1887674706        0.3954692301
 C         -0.9993021952        0.6555606582        0.8667865297
 H         -0.8284002048        0.7198982943        1.9331637399
 N         -3.2301289834       -0.2019731095        1.2891476171
 S         -4.7853384585        0.3850196431        1.0570425172
 O         -4.7674494557        1.6802147922        0.4181310407
 O         -5.4094663322        0.3180588566        2.3600283884
 C         -5.5453092500       -0.8169378324       -0.0137616481
 C         -5.5474784193       -2.1386714551        0.3868854852
 C         -6.1433510950       -3.0845742507       -0.4317922283
 C         -6.7268168247       -2.6947485116       -1.6282679107
 C         -6.7199424079       -1.3631582332       -2.0142733651
 C         -6.1241951101       -0.4120392519       -1.2005308464
 H         -6.0903611487        0.6335518098       -1.4626338119
 H         -7.1745575884       -1.0620135443       -2.9443999493
 H         -7.1896705485       -3.4332808307       -2.2636345973
 H         -6.1506403584       -4.1211138749       -0.1353060011
 H         -5.0869684745       -2.4005071078        1.3249004207
 H         -2.9623420530       -0.1482841186        2.2612099967
 H         -3.3872239906       -0.2667555932       -1.3379554442
 H         -1.5974547343        0.3819992260       -2.9118997626
 H          0.5708464308        1.1955074293       -2.0609326552
 H          1.3380874610        1.3177713037        1.6135395455
 C          1.5090451103        3.0271769289        0.3621374314
 C          0.6659989107        3.8774267957       -0.5350759657
 C          0.5021750044        3.9716921656        0.9503520202
 H          0.8538527209        4.8561180155        1.4596353325
 H         -0.3917819997        3.5416542379        1.3782482141
 H          1.1546726632        4.6844191104       -1.0591645633
 H         -0.1201194297        3.4056144275       -1.1028312759
 H          2.5511694782        3.3179788523        0.4485140445
