  62
        -98.94172370
 C          2.1228314217        0.8126445668        0.2602907408
 C          2.9893803941        0.2351574269        1.2229512474
 C          3.7762217861       -0.9192845734        0.7756813569
 C          3.5866651251       -1.4145676478       -0.4603521262
 C          4.2949542242       -2.6003229522       -1.0571989749
 C          5.6648459206       -2.2671074668       -1.6644695815
 C          6.7717619966       -1.9712849413       -0.6514888452
 H          6.8199385878       -2.7800016662        0.0783657304
 H          7.7154911343       -1.9710190509       -1.2003635461
 C          6.6234157678       -0.6271327020        0.0750849119
 H          5.9231823931        0.0070664395       -0.4738108621
 H          7.5848305208       -0.1088476090        0.0825930948
 C          6.1577399303       -0.7392359633        1.5269416784
 H          6.9160179737       -1.2598754129        2.1157331508
 H          6.0515136286        0.2704230162        1.9321410786
 C          4.8175697351       -1.4649110016        1.7054433176
 H          4.9448548049       -2.5358645200        1.5486563383
 H          4.4698636361       -1.2987240903        2.7280526002
 H          5.5496650881       -1.4150953891       -2.3385755523
 H          5.9714300466       -3.1264491329       -2.2652524296
 H          4.4097330599       -3.3777876467       -0.3011120999
 H          3.6482715244       -2.9806737370       -1.8511202519
 O          2.6810228369       -0.8874110459       -1.3257843638
 C          1.9423471595        0.2465415579       -1.0030146362
 O          1.1787553845        0.6218113732       -1.9113294252
 H         -0.2612267667        0.0653754885        1.4451580913
 C         -0.7978522610        0.7604450236        0.8096695957
 C         -0.1250768665        1.8661516373        0.3030240450
 C         -0.8186533358        2.7406601929       -0.5219786138
 C         -2.1474892413        2.5057860306       -0.8301477945
 C         -2.8125089162        1.4051563470       -0.3229971668
 C         -2.1261163894        0.5190935495        0.4972748513
 N         -2.7933676230       -0.6000842082        1.0263994474
 S         -3.6867215072       -1.5677826437       -0.0162442049
 O         -3.7249022844       -2.8659194358        0.6231925618
 O         -3.1690419729       -1.5301106868       -1.3639893538
 C         -5.3159248061       -0.8502338608        0.0382034257
 C         -5.9313012627       -0.7245369371        1.2683604516
 C         -7.2000407198       -0.1707127939        1.3282065960
 C         -7.8297218754        0.2427921655        0.1635789667
 C         -7.2005275450        0.1053661047       -1.0641869887
 C         -5.9307024578       -0.4470622236       -1.1308892450
 H         -5.3999728160       -0.5689460610       -2.0619609049
 H         -7.6917065549        0.4260920099       -1.9688266941
 H         -8.8169770643        0.6742613047        0.2128913153
 H         -7.6927907472       -0.0629854065        2.2810221832
 H         -5.4091301040       -1.0622374875        2.1478779100
 H         -2.2126205798       -1.1707136596        1.6239662691
 H         -3.8450225319        1.2165449402       -0.5672482557
 H         -2.6727335071        3.1899190084       -1.4790973786
 H         -0.3127967956        3.5920251543       -0.9462829224
 C          1.3257103175        2.0353711886        0.6783682875
 H          1.3892816670        2.0339945940        1.7799802556
 C          1.9226624048        3.3562361524        0.2162552597
 C          3.3929184197        3.4895616288       -0.0423195829
 C          2.4222945943        3.5669347522       -1.1804761289
 H          2.2550848761        4.5280079646       -1.6446048569
 H          2.3584134550        2.7354182094       -1.8646262960
 H          3.8902482258        4.3937395074        0.2751768219
 H          4.0008504634        2.6012720941        0.0520850351
 H          1.4427659588        4.2048370023        0.6939738915
 O          3.0942566338        0.6611516159        2.4041725009
