  62
        -98.94628174
 C         -1.5390100446       -1.4681465795       -0.0732634102
 C         -1.5082392584       -0.1063919260        0.3146672907
 C         -2.8006861811        0.4691290385        0.7079194425
 C         -3.9026086833       -0.3023355692        0.7166455295
 C         -5.2866492979        0.1382993961        1.1102259536
 C         -6.0674916564        0.8251298042       -0.0188556613
 C         -5.5948355843        2.2355855358       -0.3740501514
 H         -6.3599168637        2.6764407263       -1.0163840307
 H         -5.5445430329        2.8392574487        0.5325865454
 C         -4.2463259827        2.2863646393       -1.1060129044
 H         -4.0115269959        1.2964233605       -1.5039684502
 H         -4.3217879205        2.9641003643       -1.9594493709
 C         -3.0753137988        2.7648569027       -0.2473793129
 H         -3.2360735549        3.8058506066        0.0414178078
 H         -2.1663208213        2.7143322301       -0.8513153622
 C         -2.8434110131        1.9340903016        1.0211462778
 H         -1.8718532817        2.2080463591        1.4395034656
 H         -3.6178882060        2.1454311891        1.7579556009
 H         -7.1117968640        0.8838055448        0.2968568413
 H         -6.0253507022        0.1917734669       -0.9080889823
 H         -5.2282402368        0.8046584012        1.9713254027
 H         -5.8288428446       -0.7630279713        1.4043270535
 O         -3.8793850237       -1.6198343211        0.3768565249
 C         -2.7065566736       -2.2284844477       -0.0438601054
 O         -2.8308762922       -3.4330598902       -0.3470938609
 O         -0.4628902191        0.5900645058        0.3336506825
 C         -0.2582653111       -2.1339140029       -0.5434738958
 C          0.8157804653       -1.9524404422        0.5002490174
 C          0.5540532571       -2.3502628447        1.8093617366
 C          1.4956480102       -2.1708867041        2.8033454504
 C          2.7133493324       -1.5774255117        2.5179095645
 C          2.9882927142       -1.1883978432        1.2131098211
 C          2.0493341128       -1.3928850569        0.2109287527
 H          2.2996515303       -1.1012576413       -0.7942446709
 N          4.2161268815       -0.5976597255        0.8880167300
 S          4.3375856198        0.5169461686       -0.3481906633
 O          4.3141021031       -0.1551064440       -1.6241249562
 O          5.5580676320        1.2372782758       -0.0476280127
 C          2.9469549052        1.6242097005       -0.2076254380
 C          2.7145607830        2.2469376640        1.0014063158
 C          1.6614525930        3.1397620475        1.1021553944
 C          0.8662360293        3.3985197678       -0.0022173922
 C          1.1147800504        2.7678137560       -1.2094996858
 C          2.1635456026        1.8702417149       -1.3151436226
 H          2.3854047662        1.3511196750       -2.2347300642
 H          0.4893823315        2.9638230949       -2.0666455452
 H          0.0419455902        4.0897338599        0.0802825294
 H          1.4590166676        3.6265785938        2.0429992332
 H          3.3523138323        2.0309549527        1.8435451706
 H          4.8046037023       -0.3615829552        1.6726865905
 H          3.4442910255       -1.4209955401        3.2963780389
 H          1.2770097723       -2.4833471107        3.8134896673
 H         -0.4056097074       -2.7952908193        2.0364838641
 H         -0.4797374638       -3.2069276508       -0.6363135630
 C          0.1299000930       -1.5918801977       -1.9034617082
 C          0.9692884257       -2.4134290590       -2.8335662223
 C         -0.4813266542       -2.1864136491       -3.1346750711
 H         -0.7435139442       -1.5291254033       -3.9502108980
 H         -1.1678147942       -3.0098154846       -2.9999677648
 H          1.7110771696       -1.9133324279       -3.4385857834
 H          1.2698643871       -3.3949423447       -2.4989825288
 H          0.2843783101       -0.5183571452       -1.8917859460
