  62
        -98.93651581
 C         -1.7948580406       -0.8980527889        0.2682609707
 C         -3.1115350706       -1.0228703485        0.7783266006
 C         -3.9360373805        0.1913932916        0.7531699701
 C         -3.4032950803        1.3356240714        0.2871416398
 C         -4.1443207201        2.6334733414        0.1515144692
 C         -4.7864858600        2.7606435510       -1.2370236009
 C         -5.5863922301        1.5292900309       -1.6625199105
 H         -6.0173280900        1.7443204406       -2.6428361006
 H         -4.9027836802        0.6867807808       -1.7912113201
 C         -6.7044391203        1.1303746014       -0.6890521604
 H         -6.9404267902        1.9685272017       -0.0324052807
 H         -7.6051784703        0.9057275513       -1.2642113204
 C         -6.3978182405       -0.1060952983        0.1582227601
 H         -6.0718049305       -0.9230495386       -0.4907241896
 H         -7.3246415906       -0.4241941780        0.6430406901
 C         -5.3467993905        0.0831649520        1.2593888201
 H         -5.6058294505        0.9503460522        1.8700414697
 H         -5.3695457307       -0.8057777578        1.8965195304
 H         -5.4368345099        3.6372389411       -1.2382666612
 H         -3.9942770199        2.9237506706       -1.9714347509
 H         -4.9087662402        2.6923747218        0.9237023592
 H         -3.4356045000        3.4514687814        0.2900935390
 O         -2.1278901303        1.4257938010       -0.1641042002
 C         -1.2964614804        0.3129021009       -0.2096834897
 O         -0.1685375003        0.5488539606       -0.6760453197
 H          1.6656836894       -1.6684301897       -0.8566396088
 C          1.6054919793       -1.6741278793        0.2151632412
 C          0.4067558192       -1.8779768289        0.8810118412
 C          0.4151898092       -1.8076858984        2.2758230412
 C          1.5755897091       -1.5508261083        2.9774038212
 C          2.7708726892       -1.3658634287        2.3048421812
 C          2.7803461793       -1.4303129592        0.9180853412
 N          3.9906472094       -1.3030668896        0.2114049012
 S          4.1841859596       -0.2043225901       -1.0358165191
 O          3.2046165696       -0.4384688103       -2.0626947191
 O          5.5694346096       -0.3543631504       -1.4293194190
 C          3.9709515097        1.3909821802       -0.2669246997
 C          5.1012114698        2.0834932002        0.1243956501
 C          4.9543542999        3.2947593205        0.7795857696
 C          3.6837647899        3.7864473307        1.0392490394
 C          2.5613443899        3.0757485207        0.6437145895
 C          2.6987016898        1.8629579105       -0.0158443600
 H          1.8380800797        1.2965344905       -0.3360584899
 H          1.5705888799        3.4532807109        0.8425675693
 H          3.5663607300        4.7285183409        1.5515492190
 H          5.8266055500        3.8493332305        1.0862338395
 H          6.0677464398        1.6642117100       -0.1044234697
 H          4.8041722493       -1.2623022995        0.8095439013
 H          3.6856953592       -1.1782516186        2.8464274612
 H          1.5522404591       -1.4990559779        4.0553587211
 H         -0.5151809409       -1.9560510481        2.8072750112
 C         -0.9305204707       -2.1526645190        0.2416250412
 H         -1.4556477109       -2.8472371187        0.9184777014
 C         -1.0262942807       -2.8043807095       -1.1313879486
 C         -0.3460838906       -2.3415875200       -2.3828196887
 C          0.0312978592       -3.6560874198       -1.7643572282
 H         -0.2807497209       -4.5602492100       -2.2662961679
 H          0.9879625992       -3.7379167298       -1.2737187981
 H         -0.9229192005       -2.3576959403       -3.2975217887
 H          0.3372938295       -1.5085795501       -2.3344213689
 H         -2.0481632208       -3.1500899894       -1.2777859585
 O         -3.5737481908       -2.1032595083        1.2350437210
