  62
        -98.92597706
 C         -1.6924726404        1.3816029843        0.0017890021
 C         -2.0152297527        0.0369332272        0.3003449624
 C         -3.4508345154       -0.3221641806        0.2557746604
 C         -4.3595506511        0.6242254516       -0.0354182736
 C         -5.8592406364        0.5026753466       -0.1369731807
 C         -6.5612325652       -0.3055523778        0.9649888159
 C         -7.1167658029       -1.6441939176        0.4762926589
 H         -7.9293998479       -1.9486608346        1.1396210997
 H         -7.5444707835       -1.5008487574       -0.5181678859
 C         -6.1055892682       -2.7885342973        0.4306645106
 H         -5.8672791423       -3.1013403161        1.4496465340
 H         -6.5869080442       -3.6353749330       -0.0643227903
 C         -4.7952507115       -2.4767755472       -0.2956150584
 H         -4.3570780007       -3.4250035846       -0.6147562713
 H         -4.9863466948       -1.8963711206       -1.1975094056
 C         -3.7597674384       -1.7579444545        0.5824485874
 H         -2.7955158740       -2.2712683034        0.5083517996
 H         -4.0521973553       -1.8247089264        1.6346266552
 H         -5.8814514463       -0.4602901088        1.8014565981
 H         -7.3972597780        0.2907760822        1.3340292158
 H         -6.2262576458        1.5315268649       -0.1333387956
 H         -6.1080123330        0.0873238570       -1.1166403886
 O         -3.9996973645        1.9088101154       -0.3206062193
 C         -2.6809016988        2.3146729946       -0.3189385916
 O         -2.5162958474        3.5169862685       -0.6109402408
 O         -1.1646464144       -0.8413040279        0.5903849602
 C         -0.2597836681        1.9047047542       -0.0010425304
 C          0.5605358566        1.1382816472       -1.0093948994
 C          0.4967299927        1.5872091463       -2.3298413884
 C          1.1587631940        0.9280487670       -3.3463013863
 C          1.9179455024       -0.1954900466       -3.0715947907
 C          1.9876300444       -0.6579895173       -1.7635240948
 C          1.3174714180        0.0068210658       -0.7426464770
 H          1.3622155087       -0.4207505273        0.2414043684
 N          2.7347367143       -1.8033733910       -1.4654072783
 S          3.4571760141       -2.0693489268        0.0072698961
 O          4.4667848216       -3.0684736774       -0.2807947309
 O          2.4922515417       -2.4334343788        1.0127753595
 C          4.2676715569       -0.5468947483        0.4695134743
 C          4.3368151274       -0.2246372382        1.8100121960
 C          5.0149826571        0.9214567160        2.1940957808
 C          5.6064182709        1.7267826071        1.2337107789
 C          5.5272883824        1.3915791906       -0.1091936882
 C          4.8586838178        0.2415790913       -0.4981391848
 H          4.7903312437       -0.0387946253       -1.5363429399
 H          5.9846271416        2.0210817180       -0.8554391161
 H          6.1300369505        2.6210064163        1.5324684645
 H          5.0737896307        1.1821508997        3.2383626008
 H          3.8482307407       -0.8694926230        2.5224202350
 H          3.2566963788       -2.2032382128       -2.2297767656
 H          2.4368073217       -0.7183185095       -3.8605761902
 H          1.0882370708        1.2932630091       -4.3595893360
 H         -0.1002798195        2.4610162888       -2.5521131540
 H         -0.3552072487        2.9257470319       -0.4033697293
 C          0.2636764426        2.1022874435        1.4148715393
 C          0.7496401615        1.0446746429        2.3579176394
 C          1.7169325712        2.0288823362        1.7712478431
 H          2.1281404898        2.7893763637        2.4176106434
 H          2.3984666460        1.6814193859        1.0108852572
 H          0.4795236716        1.1591086341        3.3988378138
 H          0.7616803669        0.0146416960        2.0423794421
 H         -0.3018270385        2.9019798014        1.8890932490
