  62
        -98.94849412
 C          1.2421620307        1.5182471480        0.4965931144
 C          2.1388513726        1.1587132054       -0.5382901983
 C          3.1673060561        0.1722451582       -0.1792966120
 C          3.2074230625       -0.3166313427        1.0732453592
 C          4.1829450411       -1.3469071847        1.5624063167
 C          3.6202563693       -2.7675604662        1.4214227469
 C          3.0392096463       -3.0755956600        0.0409431638
 H          2.7274091755       -4.1229752334        0.0497819023
 H          2.1305251226       -2.4866146392       -0.1093611660
 C          4.0085043710       -2.8431017115       -1.1264758512
 H          3.9241649699       -3.6845423227       -1.8176433646
 H          5.0351043612       -2.8276589204       -0.7574602908
 C          3.7405113004       -1.5743436550       -1.9385858458
 H          4.3111550266       -1.6400692087       -2.8690992419
 H          2.6807252820       -1.5320717666       -2.2052282532
 C          4.1207665751       -0.2523735270       -1.2594808808
 H          5.1415924505       -0.3141911119       -0.8767282016
 H          4.0832449154        0.5348460213       -2.0182822732
 H          2.8248046182       -2.9026770995        2.1581759576
 H          4.4187186521       -3.4772756263        1.6480479970
 H          5.1101675687       -1.2555088366        0.9999231840
 H          4.3873706785       -1.1517811903        2.6168839090
 O          2.3319778764        0.0555064292        2.0415004882
 C          1.3088593134        0.9492452270        1.7670319897
 O          0.5357452304        1.1566393354        2.7257599257
 H         -0.4346460760       -0.0863211242       -0.2633994296
 C         -0.9831990431        0.5567524419       -0.9328707918
 C         -0.8014570104        1.9298515662       -0.8622290602
 C         -1.4953645332        2.7337873899       -1.7588264079
 C         -2.3327961761        2.1648542337       -2.7029449715
 C         -2.5117059906        0.7943543769       -2.7661523200
 C         -1.8243114343       -0.0174824335       -1.8713718656
 N         -1.9572926709       -1.4131470299       -1.8981467680
 S         -1.8605045485       -2.2940527808       -0.4818492125
 O         -0.5027191174       -2.3381532631       -0.0014399477
 O         -2.4513575574       -3.5711361096       -0.8214397953
 C         -2.9226727906       -1.4310360332        0.6623042948
 C         -2.3988107406       -0.7085958928        1.7139771233
 C         -3.2631691244       -0.0114874355        2.5443579526
 C         -4.6287211461       -0.0498788714        2.3127452937
 C         -5.1418623105       -0.7889644533        1.2569241895
 C         -4.2829545205       -1.4830916150        0.4218725765
 H         -4.6429554256       -2.0781606704       -0.4016285682
 H         -6.2050898881       -0.8226049777        1.0822126432
 H         -5.2951966172        0.4968050117        2.9609744277
 H         -2.8515687028        0.5603974589        3.3609943489
 H         -1.3327250357       -0.6877678290        1.8794668368
 H         -2.6627883346       -1.7697172244       -2.5249255702
 H         -3.1637018375        0.3548894452       -3.5051372552
 H         -2.8590394718        2.7996944559       -3.3994101131
 H         -1.3731960911        3.8040787622       -1.7234565703
 C          0.1069206226        2.4827448450        0.2114495308
 H         -0.4776977089        2.5481133088        1.1420115318
 C          0.6483159145        3.8589766456       -0.1207190729
 C         -0.0992058283        5.0905236572        0.2915412794
 C          1.1710546805        4.7156877451        0.9919979894
 H          2.0563763925        5.3077660168        0.8154832195
 H          1.1062168266        4.3169929732        1.9943156367
 H         -1.0270399097        4.9588539127        0.8275353159
 H         -0.0844391441        5.9464721827       -0.3663283207
 H          1.1879116488        3.8752089156       -1.0604452463
 O          2.0841958647        1.6349401741       -1.7024469225
