  62
        -98.94456662
 C         -2.0315396321       -1.3074710810        0.0990124449
 C         -2.5962392873       -0.5410032199        1.1477021847
 C         -3.8866048153        0.0926506600        0.8591836998
 C         -4.4478539308       -0.0606866265       -0.3542719780
 C         -5.7787243829        0.4899431964       -0.7902172383
 C         -5.7290972211        1.9446617764       -1.2765326308
 C         -5.5275192944        2.9902246102       -0.1791340298
 H         -5.7279729428        3.9663065814       -0.6253433682
 H         -6.2650545908        2.8353081885        0.6090343775
 C         -4.1175565782        3.0055063312        0.4278228612
 H         -3.7612560206        4.0360225207        0.4960105070
 H         -3.4297673620        2.4740458857       -0.2345344243
 C         -4.0245717715        2.4002097514        1.8286048029
 H         -2.9789405379        2.4306052261        2.1459853132
 H         -4.6050946846        3.0058154071        2.5281190939
 C         -4.5077127958        0.9469474404        1.9230282719
 H         -4.2017740350        0.5466446415        2.8927459503
 H         -5.5946925317        0.9078375850        1.8559221330
 H         -4.9336810907        2.0383201479       -2.0195776482
 H         -6.6774717157        2.1530140487       -1.7771550526
 H         -6.4955065778        0.4030739791        0.0269512625
 H         -6.1170163861       -0.1371990792       -1.6178436858
 O         -3.8577679206       -0.7762945641       -1.3467632319
 C         -2.6306161653       -1.3987979805       -1.1579115144
 O         -2.2025494644       -1.9913593443       -2.1651087255
 O         -2.0490688717       -0.3990987844        2.2751033313
 C         -0.7036099269       -2.0029611329        0.3498366791
 C          0.3739423532       -1.2986900891       -0.4368081274
 C          1.0159871470       -1.8530182536       -1.5353689972
 C          1.9746577267       -1.1281855849       -2.2236077952
 C          2.3224691967        0.1489122238       -1.8248528214
 C          1.6960687688        0.7065773596       -0.7162808028
 C          0.7310449112       -0.0166991913       -0.0335383904
 H          0.2350809490        0.4191945880        0.8245700139
 N          2.0706605267        1.9911615484       -0.2843140695
 S          3.7126305873        2.3031638972       -0.1657117744
 O          3.8380625751        3.2989266062        0.8756347393
 O          4.2274024912        2.6798028585       -1.4587347408
 C          4.4449109245        0.7584496917        0.3480428582
 C          5.3660077883        0.1287977173       -0.4638205572
 C          5.8914776453       -1.0891412194       -0.0627712353
 C          5.4852682758       -1.6554312587        1.1352385904
 C          4.5626918661       -1.0077956096        1.9428156478
 C          4.0355947064        0.2108202002        1.5478979161
 H          3.3195334469        0.7403418795        2.1560635680
 H          4.2483854161       -1.4487597055        2.8752489605
 H          5.8894019295       -2.6067220619        1.4434347406
 H          6.6106793778       -1.5936684137       -0.6875204832
 H          5.6504929722        0.6022178230       -1.3893187388
 H          1.5783319905        2.3044092560        0.5394146190
 H          3.0617596432        0.7270103168       -2.3552823488
 H          2.4580097236       -1.5652805901       -3.0838390995
 H          0.7536710243       -2.8447049151       -1.8633864559
 H         -0.4961225509       -1.8426268398        1.4174303221
 C         -0.7849163132       -3.4911933784        0.0907971399
 C          0.2600660502       -4.3945517827        0.6722162942
 C         -1.1332861247       -4.4085548593        1.2230311035
 H         -1.7621398046       -5.2621124712        1.0188433331
 H         -1.3064121910       -3.9629474184        2.1918130374
 H          0.5906581742       -5.2418216932        0.0914632736
 H          1.0361192552       -3.9377196176        1.2672199421
 H         -1.1856579393       -3.7334483841       -0.8858959590
