  62
        -98.94412391
 C          2.5172061220        1.1491704735       -0.0954759580
 C          3.2547577735        0.4083388869        0.8579055445
 C          4.0289114926       -0.7210344391        0.3311547946
 C          4.0108881664       -0.9846511423       -0.9884873531
 C          4.7659061619       -2.0871160116       -1.6806204159
 C          4.0512475262       -3.4452536649       -1.6550531567
 C          4.0397012444       -4.1487086151       -0.2972684803
 H          3.7012987841       -5.1724266398       -0.4687549605
 H          5.0568571103       -4.2029764712        0.0917416117
 C          3.1226797133       -3.4950938471        0.7461995056
 H          2.5280132566       -4.2648194822        1.2438188763
 H          2.4207388491       -2.8245763881        0.2440648813
 C          3.8585972903       -2.7154721745        1.8363060355
 H          4.4675674172       -3.4013243837        2.4293101458
 H          3.1142867538       -2.2682094235        2.5009054405
 C          4.7599780489       -1.5911427208        1.3087296293
 H          5.0575964813       -0.9656391724        2.1539044374
 H          5.6554764546       -2.0107001437        0.8511362099
 H          3.0247896076       -3.3063204100       -2.0023637751
 H          4.5595568191       -4.0945006879       -2.3714848781
 H          4.8798371925       -1.7783953254       -2.7218691496
 H          5.7567715297       -2.1873412559       -1.2370000214
 O          3.2930392572       -0.2441069624       -1.8738333079
 C          2.5103293731        0.8219053234       -1.4517329851
 O          1.8754339595        1.3838537522       -2.3628659827
 H          0.3267986320        0.0689160576        0.8102345788
 C         -0.3187773168        0.8261613074        0.3808872202
 C          0.2149203543        2.0725525827        0.0753701322
 C         -0.6293032336        3.0385814026       -0.4556609667
 C         -1.9627940400        2.7508623047       -0.6918116926
 C         -2.4832817232        1.5027389582       -0.4053684225
 C         -1.6519029814        0.5325117522        0.1396346187
 N         -2.1662782897       -0.7442111279        0.4241629726
 S         -3.5941869052       -0.8556754275        1.2999235428
 O         -3.7566387369        0.2676479003        2.1935164970
 O         -3.5567522132       -2.1649005227        1.9143898743
 C         -4.8655523203       -0.8356829252        0.0540321641
 C         -5.9055258438        0.0684409565        0.1459268552
 C         -6.8913693152        0.0567193314       -0.8286744432
 C         -6.8202467746       -0.8542009381       -1.8714058727
 C         -5.7700893092       -1.7571149276       -1.9478370744
 C         -4.7822700166       -1.7518075038       -0.9761310244
 H         -3.9516594684       -2.4375232082       -0.9982302056
 H         -5.7174757980       -2.4637102573       -2.7604416397
 H         -7.5874657239       -0.8609089289       -2.6294473969
 H         -7.7084592603        0.7576927526       -0.7711230550
 H         -5.9154286462        0.7625612337        0.9710921671
 H         -1.4782569370       -1.3897913580        0.7834010125
 H         -3.5192332256        1.2739147668       -0.5946405851
 H         -2.6055101252        3.5101524819       -1.1103440820
 H         -0.2428008723        4.0168282103       -0.6891207444
 C          1.6739383360        2.3194578570        0.3746222341
 H          1.7935453130        2.3437843499        1.4688437182
 C          2.2013628183        3.6176384158       -0.1994048631
 C          2.0398941258        4.9008303281        0.5578959670
 C          3.3902711933        4.2613365818        0.4466984803
 H          4.1329066310        4.7249051201       -0.1850529548
 H          3.8021318061        3.7768614833        1.3201890300
 H          1.5367813375        4.8585862688        1.5122233936
 H          1.8576261239        5.8082485663        0.0021961091
 H          2.1424911463        3.6474667173       -1.2815269623
 O          3.2614335469        0.6748163263        2.0909195600
