  62
        -98.93925325
 C         -1.5522017445       -0.1083761507       -0.6949223788
 C         -2.8338845442       -0.6175452807       -1.0108001150
 C         -3.9035756160       -0.4193768322       -0.0142989737
 C         -3.5994995771        0.1947566521        1.1441572381
 C         -4.5183760835        0.5349016791        2.2872193586
 C         -5.4127155768        1.7488710882        1.9862101522
 C         -6.0354017502        1.7594804382        0.5924499007
 H         -6.5473604428        2.7170011865        0.4654081692
 H         -5.2411436325        1.7151943339       -0.1548467511
 C         -7.0486126573        0.6495009525        0.3233650968
 H         -7.8621671454        0.7238739645        1.0484667373
 H         -7.4707062510        0.8290914494       -0.6687127650
 C         -6.5007344411       -0.7787524377        0.3542526114
 H         -7.2632545845       -1.4290135792       -0.0845663879
 H         -6.3553981817       -1.1209554665        1.3753840740
 C         -5.2279197997       -0.9921792351       -0.4591852426
 H         -5.3881634572       -0.6238882967       -1.4788615212
 H         -5.0605732041       -2.0708708803       -0.5663403673
 H         -4.8016280110        2.6494476176        2.0841938808
 H         -6.2002220809        1.7922175147        2.7404419058
 H         -5.1161537135       -0.3309994089        2.5559411534
 H         -3.8804856970        0.7752954541        3.1408027916
 O         -2.3440207305        0.6506203307        1.4165007356
 C         -1.2945583393        0.5175859375        0.5244912539
 O         -0.2206658638        1.0010526782        0.9290305719
 O         -3.0865906913       -1.2129364906       -2.0934588645
 C         -0.4316756634       -0.3139288303       -1.7016750690
 C          0.4857280567       -1.3899863859       -1.1734970313
 C          0.0520139091       -2.7138259580       -1.1908994042
 C          0.8530368984       -3.7234738709       -0.6943703643
 C          2.0957200205       -3.4327174606       -0.1567127135
 C          2.5343440493       -2.1154364360       -0.1267831647
 C          1.7349712211       -1.1059305955       -0.6464468671
 H          2.0898624113       -0.0915353481       -0.6225286028
 N          3.7967682433       -1.7812987990        0.3945201206
 S          3.8872262291       -0.5559980127        1.5452981754
 O          5.1565367127       -0.7901371042        2.2051932297
 O          2.7246293868       -0.5540948696        2.4011330918
 C          4.0110152214        0.9446067240        0.5971914887
 C          5.1455081429        1.1247332650       -0.1700649660
 C          5.2670231051        2.2802444121       -0.9244196574
 C          4.2579186449        3.2314333138       -0.8958459336
 C          3.1283505074        3.0361847736       -0.1160429639
 C          2.9981602144        1.8821337595        0.6421147000
 H          2.1181374692        1.6836970831        1.2351989233
 H          2.3394176427        3.7716802670       -0.0961187535
 H          4.3495537581        4.1302730424       -1.4853617248
 H          6.1434691658        2.4356272541       -1.5326360320
 H          5.9070567157        0.3630024090       -0.1565332263
 H          4.3403382573       -2.5782731497        0.6959563753
 H          2.7200577056       -4.2199124882        0.2390565540
 H          0.5072276856       -4.7461126762       -0.7187904876
 H         -0.9249379040       -2.9365621089       -1.5971468527
 H         -0.9238558484       -0.7067160833       -2.6026040740
 C          0.2780628383        0.9764973556       -2.0505393630
 C          1.1916017108        1.0160217524       -3.2380449143
 C         -0.1238775289        1.7322057413       -3.2798905298
 H         -0.1268341587        2.8110364249       -3.2419525761
 H         -0.9134913571        1.3153180543       -3.8879310981
 H          2.0962912773        1.6008056923       -3.1702454603
 H          1.2938535718        0.1103198652       -3.8163178124
 H          0.5564071610        1.5591092758       -1.1814203434
