  62
        -98.93544630
 C          2.1148554395        1.2164837920        0.2125175475
 C          1.5197711396        0.3282966408       -0.7146594314
 C          1.8486604908       -1.1029980289       -0.5753285205
 C          2.6318629818       -1.5003345474        0.4412138593
 C          3.0209203032       -2.8942808068        0.8674081301
 C          3.3030726533       -3.9420085774       -0.2182050493
 C          2.1805417340       -4.9692125484       -0.3877601677
 H          2.6108987545       -5.8906962484       -0.7868180672
 H          1.7725762849       -5.2004375480        0.5986619628
 C          1.0393040731       -4.5569540201       -1.3157995772
 H          1.3965890223       -4.5518829606       -2.3479082375
 H          0.2625760737       -5.3217234906       -1.2421213161
 C          0.4124438922       -3.1943489604       -1.0180732078
 H          0.2709714528       -3.0529536396        0.0549173722
 H         -0.5836448582       -3.1732063415       -1.4673056772
 C          1.2194198708       -2.0175910702       -1.5892184293
 H          1.9882132107       -2.3859721401       -2.2728802296
 H          0.5605128399       -1.3746577811       -2.1795857094
 H          3.5220163223       -3.4516584980       -1.1645337298
 H          4.2031064940       -4.4823886564        0.0808181505
 H          3.9108689436       -2.7590498156        1.4879052994
 H          2.2326745840       -3.2571247869        1.5349574610
 O          3.1702410417       -0.6126280463        1.3279164882
 C          2.9022918406        0.7408886934        1.2606736373
 O          3.4138164907        1.4109037946        2.1831256365
 H          0.1071883504        1.5647941517        1.9696393186
 C         -0.4517602105        2.0622525007        1.1850601086
 C          0.2365872982        2.7649379905        0.2025361076
 C         -0.4946491530        3.3921895491       -0.7962523224
 C         -1.8746560329        3.2785069780       -0.8309601513
 C         -2.5479659416        2.5181935582        0.1088641497
 C         -1.8243837004        1.9093085395        1.1250409497
 N         -2.5017958991        1.0450862897        2.0385455909
 S         -2.2589766181       -0.5719724204        1.6024982720
 O         -2.9663853168       -1.3508033902        2.5987405031
 O         -0.8519980280       -0.8860418194        1.4660199212
 C         -3.0985992191       -0.6637211923        0.0406722326
 C         -4.4471391889       -0.9643085034        0.0416718238
 C         -5.1288942797       -0.9891960249       -1.1639062757
 C         -4.4540040607       -0.7077829853       -2.3427025264
 C         -3.1013752810       -0.4049839142       -2.3243975676
 C         -2.4109169402       -0.3794971027       -1.1220704081
 H         -1.3601773103       -0.1376087318       -1.0798284690
 H         -2.5725205618       -0.1800859645       -3.2367385881
 H         -4.9845624514       -0.7239504465       -3.2817381260
 H         -6.1810256795       -1.2238798658       -1.1807518748
 H         -4.9248385681       -1.1769907831        0.9839408843
 H         -2.1749192785        1.1552580607        2.9901317806
 H         -3.6161056316        2.3813368173        0.0629563906
 H         -2.4291567238        3.7607589569       -1.6209557413
 H          0.0209440061        3.9348668889       -1.5716853032
 C          1.7425445083        2.6931012517        0.2524999366
 H          2.0695840887        3.0373142828        1.2479435761
 C          2.4453626669        3.5758334415       -0.7642522446
 C          3.8266643869        3.2362584922       -1.2380274553
 C          2.6693185863        3.1605231905       -2.1856137544
 H          2.5910467251        3.9161430099       -2.9535843149
 H          2.3095240568        2.1902809000       -2.4863523434
 H          4.5420731261        4.0363735127       -1.3552043264
 H          4.2588200278        2.3117919728       -0.8819583148
 H          2.2430760362        4.6282684915       -0.5894871752
 O          0.7304452586        0.6976053694       -1.6223437311
