  62
        -98.93802101
 C         -1.7833286160       -1.5371594731        0.1055026458
 C         -2.1005906894       -0.6161139427        1.1335506142
 C         -3.0966109312        0.4240814264        0.8216369090
 C         -3.6225928458        0.4765036367       -0.4166781991
 C         -4.6878796901        1.3687489678       -1.0203182588
 C         -5.2345234951        2.5639106177       -0.2451742629
 C         -4.2535026179        3.7285611029       -0.1048881516
 H         -4.1561655145        4.2146022502       -1.0788313068
 H         -4.6776061507        4.4575387532        0.5887027038
 C         -2.8490905514        3.3523984034        0.3601319222
 H         -2.2415165707        4.2617915812        0.3471329866
 H         -2.4074447618        2.6503936489       -0.3499689597
 C         -2.7642614974        2.7574707335        1.7638125231
 H         -3.2134324166        3.4458171293        2.4827627834
 H         -1.7063527784        2.6525725084        2.0213875094
 C         -3.4207800750        1.3788314932        1.9358412922
 H         -3.0215272312        0.9276624858        2.8492188815
 H         -4.4966110998        1.4713712820        2.0640459832
 H         -6.1020518503        2.9289439546       -0.8014324408
 H         -5.5989272780        2.2438198800        0.7266892187
 H         -4.2882555380        1.7133380721       -1.9794306262
 H         -5.5218817296        0.7001286606       -1.2601948375
 O         -3.2445324168       -0.4000460804       -1.3909913893
 C         -2.3256348980       -1.4136619866       -1.1729851301
 O         -2.1000622590       -2.1073301722       -2.1814592387
 O         -1.5826339355       -0.6705578576        2.2823391947
 C         -0.7896756035       -2.6390632745        0.4372696787
 C          0.5748009014       -2.2404042764       -0.0702057475
 C          0.9743293058       -2.4512020389       -1.3849452683
 C          2.2218892358       -2.0308791868       -1.8111482044
 C          3.0925790007       -1.3950793637       -0.9435126673
 C          2.6959578116       -1.1671006663        0.3677351923
 C          1.4449077067       -1.5894394160        0.7945605037
 H          1.1301666700       -1.3980007769        1.8118566812
 N          3.5669460656       -0.5091325345        1.2550288331
 S          4.3196722316        0.8828802130        0.7118636780
 O          5.4485610793        0.5314228067       -0.1124403896
 O          4.6209258919        1.6419805700        1.9045543632
 C          3.0896302712        1.7221243237       -0.2703767350
 C          3.2915182585        1.9110686801       -1.6220482423
 C          2.3032102387        2.5353878682       -2.3663350413
 C          1.1350145449        2.9544893037       -1.7493057153
 C          0.9489322791        2.7606065951       -0.3891087104
 C          1.9328790855        2.1368245001        0.3592178711
 H          1.8163546803        1.9750436188        1.4191853402
 H          0.0391148825        3.0854733305        0.0895182447
 H          0.3636360981        3.4366421157       -2.3289858479
 H          2.4448947042        2.6894471455       -3.4239296785
 H          4.2139431296        1.5694712514       -2.0625483514
 H          3.1775331689       -0.3716198089        2.1763857597
 H          4.0711258182       -1.0728577479       -1.2604504981
 H          2.5217862915       -2.2014122339       -2.8338776271
 H          0.2928292771       -2.9211530387       -2.0755020704
 H         -0.7415268369       -2.6588061921        1.5345346324
 C         -1.2235973250       -4.0068840754       -0.0457863229
 C         -0.5496939973       -5.2191491622        0.5213442233
 C         -1.9689032783       -4.9093229202        0.8893888530
 H         -2.7548792350       -5.5309683970        0.4875477627
 H         -2.1696166121       -4.5442952304        1.8862725816
 H         -0.3580602781       -6.0558194151       -0.1325632493
 H          0.2141471440       -5.0616778856        1.2680748138
 H         -1.5129369773       -4.0311689390       -1.0877723347
