  62
        -98.93742035
 C          1.6967562302        1.0401639498        0.2649897711
 C          2.9287767600        0.9107281691        0.9562950814
 C          3.7217698999       -0.3029354007        0.6971339205
 C          3.2337913601       -1.2431759999       -0.1325712904
 C          3.7840307401       -2.5937910496       -0.5400584315
 C          5.2506135500       -2.9435720600       -0.3002216214
 C          6.2483463403       -2.1216194893       -1.1151292304
 H          7.2564107302       -2.3976426697       -0.7978828003
 H          6.1458628305       -2.3932906584       -2.1688983506
 C          6.0942938104       -0.6060581694       -1.0129067991
 H          5.1330837805       -0.3058346490       -1.4354815091
 H          6.8722195006       -0.1488151789       -1.6305545185
 C          6.2206799300       -0.0287629707        0.3960027514
 H          6.2615405002        1.0599874694        0.3022055124
 H          7.1591400499       -0.3590761411        0.8454018014
 C          5.0680951498       -0.3677331014        1.3581503208
 H          5.2179653196       -1.3358927618        1.8301125300
 H          5.0576406696        0.3850771579        2.1517485215
 H          5.3716025100       -3.9906097897       -0.5914138422
 H          5.4851990997       -2.8829762609        0.7584294287
 H          3.5629799204       -2.6950206387       -1.6073752716
 H          3.1649192699       -3.3362854600       -0.0245508523
 O          2.0211429203       -1.0993396793       -0.7380710606
 C          1.2344598203        0.0354345406       -0.5849134799
 O          0.1863087205       -0.0011914187       -1.2543735602
 O          3.3516934398        1.7767501184        1.7674502322
 C          0.8786515702        2.2914865897        0.5376091220
 C         -0.5339056199        1.9049240395        0.8881497313
 C         -0.8379224903        1.4886614884        2.1806808009
 C         -2.1149521404        1.0691658082        2.5052507701
 C         -3.1069769402        1.0279530691        1.5409293098
 C         -2.8043410698        1.4193472402        0.2433326803
 C         -1.5336136697        1.8819757504       -0.0705649590
 H         -1.3101887794        2.1801528512       -1.0827658487
 N         -3.7830444595        1.3275932412       -0.7593582801
 S         -4.8102328596        0.0107508112       -0.7501180515
 O         -5.1782786493       -0.1924423275       -2.1349178518
 O         -5.9106824099        0.2729834605        0.1472057184
 C         -3.8894304799       -1.3967759294       -0.1435901325
 C         -2.5933132298       -1.6137294191       -0.5658741023
 C         -1.9164397300       -2.7275925096       -0.0938226331
 C         -2.5413324503       -3.6069905803        0.7758102159
 C         -3.8462873804       -3.3783341305        1.1845599958
 C         -4.5263751602       -2.2631350101        0.7236893966
 H         -5.5370031103       -2.0400028003        1.0256976065
 H         -4.3325801607       -4.0616072511        1.8620994551
 H         -2.0072899005       -4.4715285406        1.1378529953
 H         -0.8969410800       -2.8865719394       -0.4091245530
 H         -2.0950515396       -0.9222881186       -1.2266756316
 H         -3.4276671593        1.5025528919       -1.6880261798
 H         -4.1057681703        0.6945039290        1.7732667893
 H         -2.3399089907        0.7602727573        3.5146192998
 H         -0.0573059905        1.4911526976        2.9285624211
 H          1.3471746500        2.7326451588        1.4316175925
 C          0.9472109206        3.3493378606       -0.5542556670
 C          2.2504436808        3.6564163311       -1.2277868864
 C          1.1356879409        3.0264478119       -2.0050121873
 H          0.6140207712        3.6318198425       -2.7324494369
 H          1.2265236109        1.9898228921       -2.2889339581
 H          2.5016201209        4.6874360912       -1.4258478955
 H          3.0992230707        3.0417636008       -0.9654307867
 H          0.3083678206        4.1980382305       -0.3281679265
