  62
        -98.93312875
 C          1.4849376376        1.3417479064        0.2493904689
 C          2.1323895583        0.4461291566        1.1356256259
 C          3.2699909553       -0.3170484296        0.5937792390
 C          3.6111573778       -0.1481970932       -0.6951807722
 C          4.6907067254       -0.8667005958       -1.4562287446
 C          4.1158581097       -2.0935498699       -2.1846475282
 C          4.0701950728       -3.3758271928       -1.3538083021
 H          3.5233886148       -4.1207718551       -1.9368450542
 H          5.0868967691       -3.7502580550       -1.2173172213
 C          3.4096420560       -3.2453084243        0.0213843172
 H          3.1070855575       -4.2440754078        0.3421596840
 H          2.5019267927       -2.6444082540       -0.0617839238
 C          4.3413721507       -2.6428095330        1.0837047973
 H          4.3460082826       -3.2858150274        1.9661724078
 H          5.3613854796       -2.6387918155        0.6998017758
 C          3.9642870861       -1.2332339318        1.5639797649
 H          3.2755405701       -1.3095441247        2.4111622339
 H          4.8635248430       -0.7312792847        1.9362129725
 H          4.7201182004       -2.2886975726       -3.0729610554
 H          3.1089461782       -1.8386978126       -2.5263901065
 H          5.0668223021       -0.1644388714       -2.2031828756
 H          5.5064891754       -1.1471906603       -0.7965359086
 O          2.9404501158        0.6971720003       -1.5246442304
 C          1.8585557549        1.4497496427       -1.0905947287
 O          1.3354765544        2.1431451000       -1.9820212340
 H         -0.5668493878       -0.1467917657       -0.3033798932
 C         -1.2104210171        0.6811240360       -0.5779422612
 C         -0.8979112254        1.9576271874       -0.1253964091
 C         -1.7377158112        3.0028723573       -0.4871015842
 C         -2.8541900858        2.7725477847       -1.2741244494
 C         -3.1604859250        1.4993257198       -1.7182345265
 C         -2.3200072312        0.4506795664       -1.3738330442
 N         -2.6508424778       -0.8652408238       -1.7917386533
 S         -3.7991689720       -1.5844640641       -0.8006245364
 O         -3.8578386578       -2.9738135554       -1.1940339784
 O         -5.0233163385       -0.8338024738       -0.9032606033
 C         -3.1078779418       -1.4278537070        0.8355787382
 C         -2.2542232206       -2.4118922426        1.2932449494
 C         -1.6059134256       -2.2277009981        2.5037259710
 C         -1.8089054644       -1.0605639413        3.2240146209
 C         -2.6696477134       -0.0822947705        2.7508989777
 C         -3.3250834853       -0.2625528176        1.5433414490
 H         -3.9969800714        0.4771652696        1.1390663364
 H         -2.8214717110        0.8257688260        3.3119400475
 H         -1.2841987077       -0.9094568212        4.1540582901
 H         -0.9333124665       -2.9842858316        2.8751047706
 H         -2.1186641890       -3.3017247219        0.6985690167
 H         -1.8447168343       -1.4737960636       -1.8358632488
 H         -4.0350494595        1.2978256558       -2.3147819778
 H         -3.4948246214        3.5979673402       -1.5447039239
 H         -1.5157391366        4.0056935944       -0.1615850521
 C          0.2945011316        2.1133115149        0.7854852289
 H          0.0480520056        1.5956575824        1.7291436385
 C          0.5924857814        3.5596048191        1.1553296563
 C          1.9975380073        4.0434019622        1.3511521663
 C          1.1972199450        4.5231261029        0.1795559873
 H          0.8476312794        5.5453053261        0.1826295782
 H          1.4443336275        4.1467372848       -0.8004589751
 H          2.8012325377        3.3450082750        1.1670117752
 H          2.1941484480        4.7310392567        2.1601427332
 H         -0.1454636087        3.9649444617        1.8403598568
 O          1.7620883342        0.2780077585        2.3276024919
