  62
        -98.93788464
 C         -1.7978301161       -0.1261473320       -1.0882604696
 C         -1.9674219695       -0.2293634562        0.3114051343
 C         -3.3507564863       -0.4201585051        0.7882599063
 C         -4.3484981148       -0.4974744019       -0.1093542166
 C         -5.8204819474       -0.6374399599        0.1649357698
 C         -6.4989874389        0.7421656219        0.2113728375
 C         -6.4822004707        1.4220108753        1.5798088822
 H         -6.8740168037        2.4328107088        1.4453705866
 H         -7.1623601438        0.8937792094        2.2512620582
 C         -5.1082436260        1.5128680581        2.2488927630
 H         -4.3572416281        1.8010873607        1.5111696327
 H         -5.1510415795        2.3089700473        2.9947876238
 C         -4.6858951769        0.2079444720        2.9403830162
 H         -4.3803667618        0.4242461624        3.9663060127
 H         -5.5484958682       -0.4547089878        3.0088862562
 C         -3.5154874503       -0.5353423796        2.2792189506
 H         -3.5725507781       -1.5972043150        2.5423228550
 H         -2.5700206704       -0.1667360915        2.6904090430
 H         -6.0058650752        1.3825841037       -0.5242822317
 H         -7.5401762708        0.6309959256       -0.0979244068
 H         -5.9906484730       -1.1912834024        1.0833330835
 H         -6.2394924295       -1.2029813207       -0.6699602400
 O         -4.1375207200       -0.4020644211       -1.4513345859
 C         -2.8714371003       -0.2170283149       -1.9736202384
 O         -2.8295016566       -0.1547730114       -3.2190237730
 O         -1.0134284054       -0.1583674470        1.1304145468
 C         -0.4125486773        0.0683110116       -1.6784986336
 C          0.4732392041       -1.0983865299       -1.3135622912
 C          0.0243688036       -2.3883796729       -1.5878246271
 C          0.8072146867       -3.4866268737       -1.2923933110
 C          2.0533346377       -3.3229570985       -0.7117864757
 C          2.5129677630       -2.0420326080       -0.4360245580
 C          1.7272109397       -0.9391895414       -0.7460002773
 H          2.1038044726        0.0454273745       -0.5295697953
 N          3.7893691298       -1.8391284774        0.1138723800
 S          3.9806513089       -0.7890690573        1.4088609025
 O          5.2592359617       -1.1639832918        1.9776662606
 O          2.8527773686       -0.8311323005        2.3082591372
 C          4.1414447393        0.8221548826        0.6709740591
 C          5.1244255510        1.0128527907       -0.2801767079
 C          5.2807647105        2.2720424854       -0.8366590835
 C          4.4614241633        3.3142570700       -0.4292292453
 C          3.4807442136        3.1064493706        0.5292854850
 C          3.3164062327        1.8480362088        1.0872123668
 H          2.5578156278        1.6367978510        1.8249858584
 H          2.8416719475        3.9167179407        0.8431451737
 H          4.5847509992        4.2946743739       -0.8620468330
 H          6.0396283991        2.4384301077       -1.5839666561
 H          5.7453338668        0.1794886689       -0.5628909076
 H          4.3128938018       -2.6890768743        0.2698845660
 H          2.6646732293       -4.1807499295       -0.4746322877
 H          0.4444950388       -4.4800229262       -1.5104413363
 H         -0.9512652891       -2.5155492190       -2.0378445682
 H         -0.5498449066        0.0547333064       -2.7699494723
 C          0.1564340114        1.4131262537       -1.2787984243
 C          1.1373896979        2.1045542917       -2.1758891903
 C         -0.2598670877        2.6303600427       -2.0464387725
 H         -0.4187936520        3.5509606774       -1.5054925625
 H         -0.9427532951        2.4858363922       -2.8712892186
 H          1.9421097155        2.6653640699       -1.7254635139
 H          1.4061166092        1.6062844004       -3.0949164361
 H          0.2778979308        1.5144129801       -0.2062968735
