  62
        -98.94795779
 C         -1.2546015263       -0.7598182241        0.3891726392
 C         -2.0976361388       -0.5839571146       -0.7338846828
 C         -3.0641344256        0.5169448331       -0.6357210194
 C         -3.0549648730        1.3234761727        0.4409024166
 C         -3.9589552190        2.5044098607        0.6702289338
 C         -5.3281191021        2.1383807957        1.2599285955
 C         -6.2900798143        1.4481037609        0.2920302976
 H         -7.2739272352        1.4474629000        0.7653695535
 H         -6.3685103984        2.0382426811       -0.6215319635
 C         -5.9090287970        0.0026858594       -0.0571860848
 H         -5.1899796978       -0.3712684391        0.6751814692
 H         -6.7945985834       -0.6332074053        0.0091161752
 C         -5.3254207343       -0.1779178237       -1.4585357566
 H         -6.0823327629        0.0698081210       -2.2059316840
 H         -5.0576050113       -1.2298262252       -1.5853789916
 C         -4.0731931470        0.6650505375       -1.7341747162
 H         -3.6115720262        0.3055546889       -2.6572758145
 H         -4.3443000690        1.7126580102       -1.8648854253
 H         -5.1723893857        1.5031233135        2.1349432864
 H         -5.7931081414        3.0661282148        1.6013306896
 H         -3.4412457900        3.1585387018        1.3755430053
 H         -4.0961790710        3.0470810238       -0.2657001873
 O         -2.1789471163        1.1637933538        1.4687814700
 C         -1.2669209381        0.1212636772        1.4699622549
 O         -0.5258729936        0.0868827588        2.4748499627
 H          0.8490349948        0.4347269632       -0.3218226087
 C          1.2625511132       -0.3820345705       -0.8932114373
 C          0.7899384792       -1.6705678212       -0.6872855796
 C          1.3142295069       -2.6987408186       -1.4603814615
 C          2.2772101862       -2.4300621076       -2.4181432853
 C          2.7596908696       -1.1471274562       -2.6047938005
 C          2.2455841682       -0.1130935420       -1.8309130557
 N          2.7091403800        1.2050328374       -1.9651707660
 S          2.8682759449        2.1444221157       -0.5885344954
 O          1.5801333239        2.6226731478       -0.1518885067
 O          3.8220428898        3.1666061976       -0.9659143153
 C          3.6035669365        1.0532325899        0.6170742084
 C          2.8747162438        0.5683207560        1.6832782073
 C          3.4810288272       -0.3247137276        2.5541506918
 C          4.7943289096       -0.7149825418        2.3477569189
 C          5.5168314381       -0.2103828541        1.2767174214
 C          4.9167453355        0.6787436819        0.4015062491
 H          5.4471745001        1.1020950850       -0.4359658086
 H          6.5406304987       -0.5096932579        1.1209426236
 H          5.2565778221       -1.4134008730        3.0273407989
 H          2.9110234240       -0.7101924899        3.3847146857
 H          1.8507148489        0.8772098930        1.8280454482
 H          3.4912094913        1.3207883037       -2.5927890735
 H          3.5179612358       -0.9433909311       -3.3449304748
 H          2.6674960721       -3.2354333000       -3.0213947855
 H          0.9638797176       -3.7078780201       -1.3188503507
 C         -0.2328871582       -1.8812276569        0.4037444448
 H          0.2941589047       -1.7967365119        1.3664790908
 C         -0.9185384876       -3.2301465315        0.3407830732
 C         -0.3060477623       -4.4207579600        1.0134171056
 C         -1.5340243431       -3.7842776389        1.5895407028
 H         -2.4750310556       -4.3079700039        1.5127702631
 H         -1.4339103879       -3.1991692899        2.4926165732
 H          0.6287747678       -4.2760403041        1.5334412283
 H         -0.4064779965       -5.3871223712        0.5427783045
 H         -1.4522707520       -3.3820890135       -0.5899477718
 O         -2.0486427435       -1.3041838918       -1.7649444012
