  62
        -98.94253678
 C          1.2414543259        1.6076135782        0.2013541892
 C          1.5998899109        0.6010676542        1.1271054522
 C          2.8649082563       -0.1120032339        0.8813213440
 C          3.6110956583        0.2232911260       -0.1880253354
 C          4.9607931395       -0.2736064906       -0.6646502465
 C          5.6052626275       -1.5016234039       -0.0290101678
 C          4.9081064667       -2.8244807378       -0.3544250638
 H          5.1340799429       -3.0854440396       -1.3914205934
 H          5.3280287435       -3.6049926892        0.2833393124
 C          3.3880888920       -2.8271035323       -0.2090816590
 H          2.9498585741       -2.0729924185       -0.8664060248
 H          3.0140858794       -3.7954772909       -0.5532542306
 C          2.8561841625       -2.6113135773        1.2054600367
 H          3.2427184924       -3.3887792262        1.8683669977
 H          1.7679482049       -2.7186606269        1.1559151983
 C          3.1694029609       -1.2402476088        1.8239521653
 H          2.5143964666       -1.1036717829        2.6897499411
 H          4.1956524678       -1.1952547000        2.1794394652
 H          6.6234250306       -1.5609683236       -0.4229226494
 H          5.6925629549       -1.3624577430        1.0446259244
 H          4.8588061619       -0.4381877343       -1.7421731321
 H          5.6425236673        0.5760856748       -0.5473456888
 O          3.2207323712        1.2011791430       -1.0583660563
 C          2.0190999109        1.8774275846       -0.9220323469
 O          1.7759387139        2.6779825028       -1.8449908003
 H         -0.4712791738       -0.1732345446       -0.4238782449
 C         -1.1399491606        0.5046780010       -0.9307538162
 C         -1.0629538703        1.8667370244       -0.6727560036
 C         -1.9135833059        2.7192790370       -1.3646262510
 C         -2.8056888314        2.2112990328       -2.2940177689
 C         -2.8939847515        0.8512284386       -2.5299042570
 C         -2.0512143354       -0.0106678884       -1.8370531621
 N         -2.1075659499       -1.4006009004       -2.0219668114
 S         -1.9068568680       -2.3963204927       -0.6885250701
 O         -0.5143813643       -2.4911862059       -0.3337556441
 O         -2.5405213602       -3.6392024596       -1.0783406391
 C         -2.8600783255       -1.6169982490        0.6029728870
 C         -4.2352165283       -1.6464271803        0.4654061704
 C         -5.0214872063       -1.0120414981        1.4119048019
 C         -4.4212501095       -0.3554677905        2.4760173773
 C         -3.0416780064       -0.3401663642        2.6028089206
 C         -2.2475892321       -0.9756704253        1.6597160903
 H         -1.1713367243       -0.9652488819        1.7406337650
 H         -2.5675317949        0.1674680078        3.4278748557
 H         -5.0308921144        0.1449322085        3.2117837388
 H         -6.0952141037       -1.0278293459        1.3169157303
 H         -4.6627952007       -2.1779710806       -0.3693265196
 H         -2.8560518134       -1.7208560884       -2.6186230589
 H         -3.5992185927        0.4585757706       -3.2461259372
 H         -3.4524608293        2.8854035824       -2.8346080326
 H         -1.8732029400        3.7805841165       -1.1829941898
 C         -0.0829962539        2.3258525649        0.3805795654
 H         -0.4672422604        1.9806459092        1.3530683583
 C          0.0993299952        3.8266475311        0.4370471157
 C         -0.8544904060        4.6689846566        1.2290814711
 C          0.5424279493        4.4518446979        1.7250527860
 H          1.2412813561        5.2737284369        1.6847241014
 H          0.6908712751        3.7956056728        2.5703165637
 H         -1.1155682176        5.6458717440        0.8511305186
 H         -1.6577879970        4.1643154807        1.7440818942
 H          0.5061014195        4.2338028531       -0.4811756079
 O          0.8893203358        0.3096245482        2.1279395376
