  62
        -98.93864876
 C         -1.1089033752       -1.3296646904        0.1822140847
 C         -2.0048476431       -0.7970495277        1.1393525782
 C         -2.7387122404        0.4291737000        0.7706339187
 C         -2.4954999385        0.9891895830       -0.4284201779
 C         -3.1561004045        2.1958915089       -1.0398124500
 C         -4.5706091910        1.8932626618       -1.5628913272
 C         -5.4299017100        1.0316900272       -0.6410610894
 H         -6.3506831577        0.7876844403       -1.1773057356
 H         -4.9127088391        0.0910457752       -0.4425598523
 C         -5.8210887815        1.6830549007        0.6831739983
 H         -6.3898248050        2.5934188774        0.4806743228
 H         -6.4828120060        0.9873725963        1.2055778591
 C         -4.6654837463        2.0350946330        1.6217713010
 H         -4.1478498150        2.9300590541        1.2866267217
 H         -5.0990288187        2.2762453528        2.5969407930
 C         -3.6674659085        0.9057828466        1.8609147909
 H         -3.0162153566        1.1887309343        2.6981378855
 H         -4.2082755358        0.0168121666        2.2058076795
 H         -4.4713575709        1.3628749995       -2.5129520273
 H         -5.0773141131        2.8401504066       -1.7559725816
 H         -3.1703611050        3.0132636209       -0.3246546578
 H         -2.5355424021        2.5057992079       -1.8832476955
 O         -1.5895046047        0.4674974477       -1.3016555366
 C         -0.8549302951       -0.6747522807       -1.0224786645
 O         -0.0373868441       -0.9796487650       -1.9087774328
 H          1.1877126681       -0.6851390392        1.5921123949
 C          1.7603157473       -1.3304959598        0.9409780535
 C          1.1306109806       -2.3867770614        0.2923537114
 C          1.8869123435       -3.2020833421       -0.5388344964
 C          3.2379141859       -2.9594664989       -0.7153241292
 C          3.8588165626       -1.9043434868       -0.0737375024
 C          3.1107932705       -1.0820709214        0.7617095233
 N          3.7185832295       -0.0140463005        1.4482404876
 S          3.0037605399        1.4950689278        1.4317661393
 O          4.0432670779        2.3856319862        1.9030801240
 O          1.7847974476        1.4837589759        2.2005773370
 C          2.6602778532        1.8347220185       -0.2829123512
 C          1.3559414471        1.8782342781       -0.7252343715
 C          1.1107988200        2.1112370166       -2.0687552148
 C          2.1712961604        2.2898189387       -2.9419686208
 C          3.4787303425        2.2491231864       -2.4813831261
 C          3.7287264201        2.0184693204       -1.1393182463
 H          4.7302598470        1.9945747496       -0.7413662002
 H          4.3002478303        2.3928190033       -3.1645805498
 H          1.9747347176        2.4620290883       -3.9883903063
 H          0.0940233447        2.1280938560       -2.4261716057
 H          0.5581033596        1.7256912125       -0.0143872674
 H          4.7116766590        0.0677444382        1.2819113118
 H          4.9124665492       -1.7162313728       -0.2131288361
 H          3.8136176402       -3.5976716168       -1.3681154751
 H          1.4157770266       -4.0165429070       -1.0635022561
 C         -0.3418592487       -2.5855540046        0.5506802061
 H         -0.4777298145       -2.6739936710        1.6423684029
 C         -0.9001528331       -3.8637175346       -0.0572149251
 C         -2.3465836459       -3.9702653450       -0.4355386356
 C         -1.2927467603       -3.9654002270       -1.4997428154
 H         -1.0906239030       -4.8900767108       -2.0204345073
 H         -1.1795137875       -3.0846257500       -2.1113920557
 H         -2.8658698258       -4.8931787374       -0.2247858172
 H         -2.9599764214       -3.0884635796       -0.3184099714
 H         -0.4578931217       -4.7488948459        0.3899791906
 O         -2.1961529732       -1.3280627912        2.2677172974
