  62
        -98.94945643
 C         -2.0425482171       -0.4737911404       -0.3114992200
 C         -1.3448762725       -1.3725313675       -1.1512938493
 C         -0.9043895170       -2.6248055952       -0.5264850684
 C         -1.1295014467       -2.8290930256        0.7843390115
 C         -0.7388191315       -4.0517715034        1.5698038623
 C          0.7196312782       -4.0376686164        2.0481594331
 C          1.7599239101       -4.3221790320        0.9641529538
 H          2.7055308908       -4.5205918374        1.4727495744
 H          1.4824653147       -5.2277927936        0.4227619841
 C          1.9684423653       -3.1677504715       -0.0255756566
 H          1.5796999207       -2.2448356031        0.4128316727
 H          3.0392041447       -3.0131546766       -0.1829834861
 C          1.3369471471       -3.3911641551       -1.3996847269
 H          1.8117260614       -4.2489728131       -1.8817842562
 H          1.5345847833       -2.5109455844       -2.0149266472
 C         -0.1788633418       -3.6265370922       -1.3760119176
 H         -0.5553573517       -3.5245757844       -2.3972436278
 H         -0.3939222573       -4.6359598230       -1.0249933372
 H          0.9284970134       -3.0653045352        2.5023096228
 H          0.8166278013       -4.7987208056        2.8263328435
 H         -1.3895109918       -4.0769959461        2.4466631120
 H         -0.9207612769       -4.9479943345        0.9753457726
 O         -1.7802505714       -1.9284578183        1.5659428808
 C         -2.2414577767       -0.7297465307        1.0456431600
 O         -2.8175412006        0.0011140670        1.8751832993
 H          0.0120361156        1.0590527093       -0.2179736396
 C         -0.5435368985        1.8906194269        0.1824665197
 C         -1.9048865187        1.9759330604       -0.0792803811
 C         -2.6102659641        3.0585447773        0.4268247480
 C         -1.9677526489        3.9971819007        1.2170967880
 C         -0.6284376785        3.8669106771        1.5335371287
 C          0.0916560968        2.7954601302        1.0134208996
 N          1.4508247675        2.6311787767        1.3055202705
 S          2.2370568244        1.1561653303        1.2323580216
 O          1.3593533095        0.0377826563        1.4816407416
 O          3.3489918532        1.3095020359        2.1474112521
 C          2.8740223754        1.1321648926       -0.4310105381
 C          2.3038441397        0.3360202294       -1.4022900880
 C          2.8163310602        0.3736855413       -2.6898753878
 C          3.8873652865        1.2023717361       -2.9838776776
 C          4.4544040522        1.9942727492       -1.9962412276
 C          3.9440247917        1.9616435274       -0.7093724879
 H          4.3601020185        2.5514873297        0.0902871421
 H          5.2894705694        2.6360308730       -2.2264364874
 H          4.2813614469        1.2283389275       -3.9875374774
 H          2.3664647835       -0.2418540812       -3.4531007977
 H          1.4706635225       -0.3021731943       -1.1510795582
 H          1.8131761843        3.2249443087        2.0355692704
 H         -0.1428070421        4.5794153396        2.1827166087
 H         -2.5265666330        4.8313523582        1.6140155473
 H         -3.6638086244        3.1583938423        0.2231237674
 C         -2.5252249030        0.8529969071       -0.8740984909
 H         -2.1430041927        0.8956703184       -1.9049231807
 C         -4.0379954432        0.8983552800       -0.9095331118
 C         -4.7463887166        1.7327112562       -1.9336384225
 C         -4.7566365295        0.2387322461       -2.0469196519
 H         -5.6741946572       -0.2908802681       -1.8389855221
 H         -4.1508213469       -0.2227211514       -2.8129440213
 H         -5.6618988890        2.2293117721       -1.6496549033
 H         -4.1394227488        2.2891648188       -2.6314330925
 H         -4.4774919234        0.8126218484        0.0782298880
 O         -1.1022997029       -1.1412052169       -2.3675790792
