  62
        -98.94360085
 C         -1.7255147722       -1.2663788725        0.0297422996
 C         -1.8475575329        0.0075605894       -0.5762031095
 C         -3.2190531191        0.4317984276       -0.8945188246
 C         -4.2459206931       -0.3943261963       -0.6237796580
 C         -5.6932373601       -0.0643993905       -0.8452555881
 C         -6.3147897240        0.5704453066        0.4067010892
 C         -5.4885446366        1.7148827451        0.9939051557
 H         -6.0378110707        2.1041265787        1.8540231272
 H         -4.5434941949        1.3163739981        1.3702382751
 C         -5.1993098487        2.8583858720        0.0114450471
 H         -5.8928753041        2.8086924614       -0.8287668517
 H         -5.3743454291        3.8087654919        0.5201517262
 C         -3.7640005235        2.8932877949       -0.5170493753
 H         -3.0635432205        2.8465319693        0.3207726123
 H         -3.6108623914        3.8522755834       -1.0190493750
 C         -3.3938016656        1.7890661928       -1.5153143748
 H         -4.1325411996        1.7555232224       -2.3185205748
 H         -2.4228642502        2.0453622872       -1.9487844993
 H         -7.3123172837        0.9327985195        0.1514954936
 H         -6.4199260037       -0.2029756294        1.1711932812
 H         -5.7809881026        0.6142538004       -1.6913291684
 H         -6.2258124364       -0.9887019452       -1.0753845125
 O         -4.0846295195       -1.6207834366       -0.0629772503
 C         -2.8267711918       -2.0797592166        0.2927514460
 O         -2.8209775815       -3.2075847867        0.8275832595
 H          2.1563008845       -0.6538960574        0.3052502747
 C          1.5823284143       -0.3130731471        1.1486219092
 C          0.3049941649       -0.8032881002        1.3622290522
 C         -0.3991309299       -0.3667054332        2.4818873866
 C          0.1586509400        0.5501760396        3.3510829346
 C          1.4267494670        1.0553322135        3.1215446809
 C          2.1404558553        0.6221886102        2.0104591752
 N          3.4004627997        1.1532084810        1.7280506674
 S          4.5044687999        0.4347363973        0.7151963719
 O          4.6639439906       -0.9716021612        1.0053254540
 O          5.6959112792        1.2429966374        0.8647568303
 C          3.8410473879        0.6482340620       -0.9238457882
 C          3.1872100515        1.8207343454       -1.2437743602
 C          2.6787874074        1.9744965376       -2.5232791618
 C          2.8360548755        0.9626080347       -3.4574669672
 C          3.5028966703       -0.2059154288       -3.1234563871
 C          4.0121081862       -0.3661676818       -1.8450391544
 H          4.5266214572       -1.2630789133       -1.5373740302
 H          3.6224335664       -0.9927759406       -3.8513789142
 H          2.4325143588        1.0832460091       -4.4506030093
 H          2.1531417109        2.8786596410       -2.7846363594
 H          3.0708401595        2.5854326930       -0.4941118289
 H          3.8030750274        1.7712070228        2.4141773668
 H          1.8572113210        1.7824528024        3.7928133796
 H         -0.3992818710        0.8801133835        4.2147735142
 H         -1.3944118443       -0.7536960764        2.6564005091
 C         -0.3521068038       -1.7822618252        0.4202161252
 H         -0.5195747748       -2.7241348016        0.9629572865
 C          0.4656315685       -2.0715000602       -0.8215070596
 C          1.5487473547       -3.1058392154       -0.7877069503
 C          0.2746920681       -3.3784514768       -1.5279681011
 H          0.2968229463       -3.3892355169       -2.6071417363
 H         -0.4297067090       -4.0761926618       -1.0984678393
 H          1.7185036824       -3.6229035354        0.1448106901
 H          2.4479091229       -2.9294771004       -1.3581657172
 H          0.6195903323       -1.1898655004       -1.4339010510
 O         -0.8677491132        0.7516647829       -0.8370174032
