  62
        -98.94524178
 C         -2.4487867322       -1.2104251163       -0.0813049014
 C         -3.5131793775       -0.7965661427        0.7601011736
 C         -4.3729855452        0.2690203840        0.2360481557
 C         -4.1230182105        0.7898141409       -0.9789557812
 C         -4.9170529367        1.8719393732       -1.6589293620
 C         -4.5210277281        3.2937450690       -1.2375236284
 C         -4.9600322117        3.7014757248        0.1694935053
 H         -4.8138234553        4.7804699656        0.2495909856
 H         -6.0267315896        3.5076670048        0.2862345481
 C         -4.1824075001        3.0134787858        1.3002475631
 H         -3.2583273752        2.5879239187        0.9009802684
 H         -3.8934318143        3.7562675082        2.0472241552
 C         -4.9598317774        1.9171888798        2.0289153536
 H         -5.8151800579        2.3572044783        2.5462052831
 H         -4.3019914622        1.4739999605        2.7806588014
 C         -5.4662659130        0.7903588459        1.1191746581
 H         -5.8047722351       -0.0343515700        1.7509523515
 H         -6.3058816436        1.1396168387        0.5188662331
 H         -3.4363865843        3.3945622368       -1.3250376962
 H         -4.9768409347        3.9836208779       -1.9515648906
 H         -4.7319666202        1.7666288695       -2.7301186898
 H         -5.9804175838        1.7186260323       -1.4728095217
 O         -3.0965481941        0.3615246882       -1.7599121463
 C         -2.2239896322       -0.6282693559       -1.3287999516
 O         -1.3235229948       -0.8946480162       -2.1494011131
 O         -3.7360484669       -1.2997744525        1.8926642185
 C         -1.5115876473       -2.2880997816        0.4407219493
 C         -0.1856023299       -1.6389060314        0.7503214369
 C         -0.0070270709       -1.0014456991        1.9751320731
 C          1.1685845357       -0.3316584068        2.2574082413
 C          2.1855002473       -0.2709897377        1.3200805327
 C          2.0088217892       -0.8867835563        0.0889920936
 C          0.8385784219       -1.5831271740       -0.1821480178
 H          0.7101673195       -2.0453339722       -1.1481059305
 N          3.0273331702       -0.8088895803       -0.8785362408
 S          3.6495499934        0.7137494825       -1.2234362920
 O          2.6896733562        1.7607262614       -0.9579711993
 O          4.1495566152        0.6233866269       -2.5782164859
 C          5.0342357220        0.8574413877       -0.1109195657
 C          5.9985458936       -0.1310035367       -0.1423219665
 C          7.0850538183       -0.0335609268        0.7120709828
 C          7.1904110449        1.0459722209        1.5765796868
 C          6.2163959478        2.0324060013        1.5930791421
 C          5.1263361486        1.9402515004        0.7413805843
 H          4.3416429562        2.6800128538        0.7229023592
 H          6.2999554397        2.8715562864        2.2649344897
 H          8.0366967917        1.1192880076        2.2412045056
 H          7.8446835915       -0.7984993062        0.7016811243
 H          5.8803457422       -0.9503898775       -0.8313604824
 H          2.7932193240       -1.2887110805       -1.7364828287
 H          3.0998064293        0.2608404980        1.5268070594
 H          1.2945970705        0.1530497159        3.2136228851
 H         -0.8111084241       -1.0258648380        2.6973516805
 H         -1.9568856692       -2.6230709186        1.3870999283
 C         -1.4122268355       -3.4733916626       -0.4958536698
 C         -0.8140704915       -4.7524304841        0.0065251859
 C         -2.2861142818       -4.6671508557       -0.2595879636
 H         -2.6878544080       -5.1873000055       -1.1162530559
 H         -2.9581167172       -4.6348572205        0.5853398092
 H         -0.2026187940       -5.3351378435       -0.6652580180
 H         -0.4853468780       -4.7760991031        1.0343893046
 H         -1.2269649997       -3.1959737071       -1.5262937915
