  62
        -98.94615083
 C         -1.9145208627       -1.2707334601        0.3033727774
 C         -1.6909492149        0.0966172201        0.0178496623
 C         -2.8180453914        1.0000426533        0.2903070839
 C         -3.9565442154        0.4975892021        0.8022555264
 C         -5.1971226697        1.2951020235        1.0797958819
 C         -6.1393537583        1.2955121313       -0.1320648094
 C         -5.4490622209        1.6465353194       -1.4501207484
 H         -4.7372802666        0.8567704807       -1.7016116308
 H         -6.2151517376        1.6469361369       -2.2285845886
 C         -4.7234613854        2.9993184851       -1.4457650380
 H         -5.0880587995        3.6126601030       -0.6209861505
 H         -4.9616575650        3.5269531387       -2.3717555333
 C         -3.1987181685        2.9010221643       -1.3694729982
 H         -2.8373294160        2.2132151957       -2.1383450140
 H         -2.7833468669        3.8873342930       -1.5930414570
 C         -2.6239174915        2.4580278026       -0.0180545520
 H         -1.5415246425        2.6126358614       -0.0541980111
 H         -3.0359475643        3.0800010845        0.7791057110
 H         -6.9465842853        2.0051113762        0.0582633662
 H         -6.5782278466        0.2999017869       -0.2302167589
 H         -5.7128942707        0.8444263731        1.9293609071
 H         -4.9176191169        2.3151215828        1.3359556521
 O         -4.1241445181       -0.8193874051        1.0869653846
 C         -3.1161248012       -1.7359969526        0.8375022647
 O         -3.4019524762       -2.9126398398        1.1376856269
 H          1.7742524670       -1.8981862837       -0.8862248372
 C          1.6632520881       -1.7599030392        0.1756778456
 C          0.4300028769       -1.9091318715        0.7890720173
 C          0.3417800951       -1.7143528392        2.1660431141
 C          1.4557650108       -1.3688577248        2.9052302335
 C          2.6821398951       -1.1993515812        2.2851287689
 C          2.7821535157       -1.3949935176        0.9140298940
 N          4.0176848291       -1.2492840963        0.2532012825
 S          4.1519506371       -0.1350925453       -0.9915788316
 O          3.2417433384       -0.4720913788       -2.0537524709
 O          5.5586527525       -0.1356017510       -1.3317901660
 C          3.7276134248        1.4266948228       -0.2402798690
 C          4.7561288088        2.2511978198        0.1753843873
 C          4.4495623259        3.4368367838        0.8220976901
 C          3.1235015565        3.7715115019        1.0524450872
 C          2.1051636587        2.9302685590        0.6330979630
 C          2.4020498534        1.7436305468       -0.0206985651
 H          1.6168032433        1.0831805922       -0.3537463401
 H          1.0712946984        3.1814346504        0.8105813848
 H          2.8814105459        4.6921106737        1.5599555442
 H          5.2415738103        4.0925983929        1.1463126853
 H          5.7714721208        1.9504388268       -0.0272827685
 H          4.8000824670       -1.1319861577        0.8824709881
 H          3.5537571729       -0.9221217718        2.8586743692
 H          1.3693754103       -1.2226050666        3.9712945731
 H         -0.6193673407       -1.8381700106        2.6471838402
 C         -0.8192926465       -2.2864640426        0.0312371775
 H         -1.1852487256       -3.2434818335        0.4311919077
 C         -0.6032841517       -2.4350990444       -1.4601819622
 C         -0.0736980151       -3.7206431993       -2.0180076845
 C         -1.5066370967       -3.3412811981       -2.2387975898
 H         -1.8148156751       -3.0377765074       -3.2282159168
 H         -2.2686148821       -3.8739071298       -1.6879602347
 H          0.6062275052       -3.6753077468       -2.8556287363
 H          0.1378768175       -4.5181426516       -1.3217073748
 H         -0.2942496589       -1.5109443865       -1.9363713932
 O         -0.6068588544        0.5435507620       -0.4386439955
