  62
        -98.94592004
 C          1.2971050909        1.4223492363        0.6223769399
 C          2.3743899283        1.3145987510       -0.2917852008
 C          3.3701768967        0.2728649693        0.0083779725
 C          3.2155081183       -0.5032512736        1.0952845038
 C          4.1318575311       -1.6251657166        1.4892868127
 C          3.6902099021       -2.9642730860        0.8814645925
 C          3.3807689229       -2.8947897247       -0.6137976555
 H          3.1042835657       -3.9014355325       -0.9342944072
 H          2.5116973694       -2.2522660462       -0.7717128969
 C          4.5443365572       -2.3901462858       -1.4782513922
 H          5.4805546388       -2.4699844599       -0.9244051128
 H          4.6325283192       -3.0323680663       -2.3569622512
 C          4.3790933962       -0.9576306646       -1.9881411114
 H          3.3999286844       -0.8459326736       -2.4603360607
 H          5.1357287383       -0.7812454556       -2.7572716932
 C          4.5343980921        0.1451171645       -0.9335708725
 H          5.4631856855       -0.0039762611       -0.3790256584
 H          4.5989857780        1.1016030097       -1.4602577558
 H          2.7940849955       -3.3061661012        1.4045609838
 H          4.4801645920       -3.6967837875        1.0573635617
 H          4.1215786359       -1.7090098170        2.5775631717
 H          5.1431556711       -1.3860962485        1.1652593117
 O          2.1704458696       -0.3691917881        1.9524585347
 C          1.1963071634        0.5917116083        1.7415891533
 O          0.3038307675        0.6091807054        2.6141798909
 O          2.5238147246        2.0437364098       -1.3059641741
 C          0.1754320578        2.4368798942        0.4520719278
 C         -0.7881552208        1.9555620176       -0.6069189979
 C         -0.5118702930        2.0707217263       -1.9653930058
 C         -1.4111425723        1.5976036268       -2.9032705492
 C         -2.5917156806        0.9920402089       -2.5102808039
 C         -2.8752425493        0.8673659356       -1.1555400086
 C         -1.9779234054        1.3561203280       -0.2160305973
 H         -2.2147079467        1.2616847583        0.8332277816
 N         -4.0691502132        0.2639446250       -0.7265860130
 S         -4.0401733828       -0.8083086988        0.5577796656
 O         -5.2650375200       -1.5657428158        0.4142949078
 O         -3.8822453599       -0.0935530886        1.7975728978
 C         -2.6396260070       -1.8630738716        0.2352465410
 C         -2.7718625554       -2.8166139422       -0.7565906101
 C         -1.6871940332       -3.6189800863       -1.0676281188
 C         -0.4893634345       -3.4521398291       -0.3883518456
 C         -0.3752675981       -2.4934759931        0.6051310317
 C         -1.4575697114       -1.6877405900        0.9234467573
 H         -1.3841098647       -0.9349950946        1.6930241169
 H          0.5511070986       -2.3546668997        1.1403233634
 H          0.3590906624       -4.0726673933       -0.6303401704
 H         -1.7752186293       -4.3692874567       -1.8366604621
 H         -3.7235677335       -2.9246475171       -1.2512730424
 H         -4.6498206048       -0.0860210084       -1.4751128833
 H         -3.2912178282        0.6213521646       -3.2438980699
 H         -1.1866721199        1.6949627072       -3.9545890434
 H          0.4213418393        2.5104916292       -2.2782882571
 H         -0.3640381892        2.4447351697        1.4091522529
 C          0.6793564584        3.8399237662        0.1785679963
 C         -0.2509544942        4.9945765022        0.3912683282
 C          0.8980627889        4.7744352879        1.3281781138
 H          1.7359835358        5.4541578857        1.2874970468
 H          0.6835539502        4.4062015948        2.3213363074
 H         -0.2043728580        5.8278996568       -0.2927662782
 H         -1.2456892313        4.7743576766        0.7496884272
 H          1.3784938498        3.8995326693       -0.6443591985
