  62
        -98.93679542
 C         -2.2262569897       -1.0727566499       -0.0959851409
 C         -3.3010303296       -0.8792790503        0.8044291694
 C         -4.2821530896        0.1650643499        0.4590589500
 C         -4.0806218997        0.9077825004       -0.6441239797
 C         -4.9315698798        2.0178532007       -1.2080703791
 C         -5.5026353396        3.0349765103       -0.2082877086
 C         -7.0132764595        2.9064519602       -0.0025738684
 H         -7.4019540995        3.8691287801        0.3368217520
 H         -7.4776378997        2.6898910007       -0.9669225685
 C         -7.4444870194        1.8505037298        1.0136578912
 H         -8.5324852894        1.7664064799        0.9610006813
 H         -7.1934386093        2.1933326094        2.0197065313
 C         -6.8347075395        0.4623626999        0.8104848405
 H         -6.8100816797        0.2080463803       -0.2486560296
 H         -7.4879061695       -0.2644688803        1.2978366803
 C         -5.4317790294        0.3126284796        1.4180906702
 H         -5.2251590493        1.1483225193        2.0925471805
 H         -5.3928258894       -0.5892197507        2.0367301898
 H         -5.3011918596        4.0330582304       -0.6009594182
 H         -4.9803812194        2.9531920698        0.7435605613
 H         -5.7447319299        1.5687179709       -1.7843116192
 H         -4.2868923098        2.5279869209       -1.9277059190
 O         -3.0103232698        0.7094371307       -1.4660202300
 C         -2.0682090898       -0.2771967894       -1.2295321306
 O         -1.1694117500       -0.3357650891       -2.0914251807
 O         -3.4437074594       -1.5608678407        1.8548225891
 C         -1.2105640697       -2.1578729001        0.2223906285
 C          0.0977720604       -1.4972300703        0.5784059286
 C          0.2803472906       -0.9999115308        1.8661145988
 C          1.4438656707       -0.3371990810        2.2076314589
 C          2.4465832605       -0.1479467607        1.2718111988
 C          2.2648675103       -0.6216129501       -0.0199024814
 C          1.1037049502       -1.3065368499       -0.3552659315
 H          0.9708067701       -1.6577277095       -1.3661071816
 N          3.2699908602       -0.4298215297       -0.9820892914
 S          4.0151647302        1.0688752803       -1.0890842909
 O          3.1485143203        2.1389683201       -0.6520049803
 O          4.5057169800        1.1506158708       -2.4478160609
 C          5.4068097304        0.9170728298        0.0137749988
 C          5.6237508806        1.8707481693        0.9887497092
 C          6.7201393407        1.7361534789        1.8266119290
 C          7.5764383406        0.6565939690        1.6745916384
 C          7.3462705204       -0.2914385606        0.6886907680
 C          6.2528507203       -0.1620753002       -0.1524405318
 H          6.0402738502       -0.8745912599       -0.9317505420
 H          8.0143825604       -1.1296335806        0.5733169475
 H          8.4282339207        0.5536171087        2.3281530082
 H          6.9005722008        2.4726843686        2.5930884893
 H          4.9282129706        2.6907662193        1.0735420196
 H          3.0173326300       -0.7700642193       -1.8988977715
 H          3.3516940106        0.3779217792        1.5279731489
 H          1.5732854408        0.0388659685        3.2111490890
 H         -0.5105522293       -1.1299112111        2.5916299688
 H         -1.5948889196       -2.6585533305        1.1210930784
 C         -1.1000186199       -3.1758813996       -0.8931947719
 C         -0.4160595099       -4.4825867898       -0.6270386226
 C         -1.9020113599       -4.4388069696       -0.8143452824
 H         -2.3204121401       -4.8394242092       -1.7255705425
 H         -2.5316878398       -4.5771338600        0.0521718677
 H          0.1882770100       -4.9173779394       -1.4083692229
 H         -0.0351948898       -4.6489371902        0.3691069773
 H         -0.9803350500       -2.7294326892       -1.8729761218
