  62
        -98.94274796
 C         -0.7196440401       -1.9735388902        0.2267871121
 C         -1.3761588600       -1.1564388096        1.1764582917
 C         -2.6457146003       -0.5576285303        0.7478410616
 C         -3.1212498406       -0.8212478113       -0.4822449181
 C         -4.3969511709       -0.2905144521       -1.0785744481
 C         -4.4212548913        1.2305926977       -1.3292811793
 C         -5.0790141412        2.0414169984       -0.2053567797
 H         -5.6863840315        2.8313178879       -0.6519947602
 H         -5.7628266609        1.3918604387        0.3430570010
 C         -4.1186974111        2.7183498794        0.7774429595
 H         -4.6978883409        3.0311837099        1.6494639094
 H         -3.7084724614        3.6178290691        0.3120155486
 C         -2.9326935907        1.8735465900        1.2445566298
 H         -2.1868745010        1.8266043096        0.4458494396
 H         -2.4570190206        2.3932492408        2.0799104892
 C         -3.2915058003        0.4352525803        1.6701607710
 H         -2.8996949399        0.2358837712        2.6699880610
 H         -4.3716001602        0.2979803701        1.6892367514
 H         -4.9881637616        1.3949002068       -2.2472771493
 H         -3.4048212515        1.5834885878       -1.5106085199
 H         -4.5162762511       -0.8127106629       -2.0299949777
 H         -5.2345577307       -0.5689086518       -0.4350823677
 O         -2.4834162207       -1.6518991519       -1.3506429476
 C         -1.2486694904       -2.2047667813       -1.0428714276
 O         -0.7443257306       -2.8765092719       -1.9633004372
 H          0.5471627892       -0.0514901505       -0.5223632898
 C          1.4636531992       -0.5500895405       -0.7925087096
 C          1.6904707897       -1.8474556601       -0.3564370287
 C          2.8666979197       -2.4762886201       -0.7475664885
 C          3.7712898393       -1.8199679706       -1.5647019193
 C          3.5360141589       -0.5277701610       -1.9994790903
 C          2.3638384688        0.1110943591       -1.6112962904
 N          2.0625283584        1.4098945687       -2.0405576113
 S          1.1223663284        2.4309286992       -1.1136612419
 O         -0.2550192115        2.0041586788       -1.1182513711
 O          1.3743658780        3.7412769288       -1.6753666630
 C          1.8260010289        2.3401792906        0.5223636180
 C          3.0958039989        2.8601248810        0.6899662972
 C          3.7012891192        2.7705955922        1.9318486271
 C          3.0329843097        2.1586149628        2.9822955878
 C          1.7580282298        1.6478772024        2.8003127286
 C          1.1452889794        1.7396956213        1.5601689687
 H          0.1557361894        1.3421931509        1.4003830193
 H          1.2292722801        1.1639591629        3.6061046791
 H          3.5064558700        2.0806954137        3.9482629777
 H          4.6910349792        3.1725353425        2.0769687265
 H          3.5782485185        3.3369613805       -0.1477293133
 H          2.7981718681        1.8934290685       -2.5321950119
 H          4.2407109686       -0.0232205813       -2.6421737109
 H          4.6767239593       -2.3231159606       -1.8681577092
 H          3.0693404700       -3.4831878298       -0.4208787678
 C          0.6669208501       -2.4965211296        0.5475333521
 H          0.8720178803       -2.1654402688        1.5776611818
 C          0.7118054804       -4.0099627997        0.5065675333
 C          1.6033862309       -4.7696663387        1.4419717636
 C          0.1195078610       -4.7805395789        1.6474695741
 H         -0.4291587189       -5.6843510192        1.4294041749
 H         -0.2881831889       -4.2107950184        2.4698111637
 H          2.2033105510       -4.2009579280        2.1363243830
 H          2.0752005910       -5.6723184689        1.0838781342
 H          0.5616489202       -4.4019808905       -0.4928100264
 O         -0.9125153798       -0.9239362286        2.3261316213
