  62
        -98.94877264
 C          0.9315743578        1.3045373568        0.0378455073
 C          1.9095085736        1.0658761702        1.0302504313
 C          2.6399409938       -0.2033132961        0.9209578148
 C          2.3231109868       -1.0595558323       -0.0675450499
 C          3.0101095605       -2.3714197621       -0.3137050891
 C          4.1847759835       -2.2123445164       -1.2888004068
 C          5.1332872389       -1.0693414382       -0.9279961311
 H          5.9399756597       -1.0705369940       -1.6640682977
 H          4.6029107971       -0.1201745993       -1.0319588672
 C          5.7298944015       -1.1618077219        0.4832991485
 H          5.6264297069       -2.1783497579        0.8646596148
 H          6.7985189741       -0.9438764865        0.4275405500
 C          5.1285622340       -0.1805876148        1.4914248808
 H          5.7618524363       -0.1773134999        2.3826887475
 H          5.1456977292        0.8296303425        1.0746045706
 C          3.6969942100       -0.4864982512        1.9508881784
 H          3.6318866555       -1.5208759937        2.2962806161
 H          3.4715066149        0.1686254009        2.7979631456
 H          3.7830721800       -2.0215919379       -2.2863107393
 H          4.7390899461       -3.1521965243       -1.3176752909
 H          3.3620483145       -2.7725795296        0.6350377459
 H          2.2844319921       -3.0655864064       -0.7403393736
 O          1.3641870651       -0.8045901165       -0.9926511652
 C          0.6408748133        0.3784511186       -0.9643001007
 O         -0.2123359307        0.4833612624       -1.8640107655
 H         -1.0672017708        0.4818009488        1.2714230815
 C         -1.7870963331        1.1568311801        0.8324976392
 C         -1.3542321383        2.3002126740        0.1749461013
 C         -2.3100044001        3.1579609735       -0.3581663047
 C         -3.6577665153        2.8668572323       -0.2433218178
 C         -4.0822314255        1.7109902687        0.3861212945
 C         -3.1343955040        0.8481800490        0.9243902445
 N         -3.5208698859       -0.3399251948        1.5661845105
 S         -2.6105888098       -1.7256391821        1.3988530874
 O         -3.5117327430       -2.7863392450        1.8048856366
 O         -1.3915979522       -1.6278452050        2.1649982289
 C         -2.2310010251       -1.9341891671       -0.3320887741
 C         -1.0850926889       -2.6328916228       -0.6502831700
 C         -0.7931218506       -2.8784229688       -1.9812973245
 C         -1.6472327502       -2.4183804776       -2.9694177066
 C         -2.7955888926       -1.7205191305       -2.6346981763
 C         -3.0981764828       -1.4806498269       -1.3045776236
 H         -3.9863088854       -0.9360140058       -1.0291861716
 H         -3.4541196989       -1.3547305550       -3.4059697849
 H         -1.4107552424       -2.5977659535       -4.0063817867
 H          0.1054298903       -3.4140488197       -2.2437258852
 H         -0.4369409033       -2.9536001734        0.1510432619
 H         -4.5098411894       -0.5417609708        1.5429782373
 H         -5.1330415151        1.4768419485        0.4641056146
 H         -4.3880264320        3.5433569646       -0.6601858958
 H         -1.9970063623        4.0557668506       -0.8655382067
 C          0.1253915810        2.5865694895        0.0892635509
 H          0.4311522948        3.0894423062        1.0199748667
 C          0.4833190988        3.4778626264       -1.0848704713
 C          0.5233950381        4.9683386203       -0.9315353298
 C          1.7990454475        4.1950198599       -1.0701638309
 H          2.3562112753        4.2725115089       -1.9916950679
 H          2.4193252986        4.0687496098       -0.1944847253
 H          0.2060535763        5.5808421160       -1.7621024147
 H          0.2877925743        5.3798546023        0.0384444753
 H          0.1477714198        3.0672821245       -2.0306248134
 O          2.1576574278        1.8760068452        1.9661234030
