  62
        -98.93284024
 C         -1.8241084626       -0.7430880755        0.3776559484
 C         -2.2069192017        0.5522481505       -0.0493624021
 C         -3.6075326502        0.7471426283       -0.4693758976
 C         -4.4409588224       -0.3087994408       -0.4353420561
 C         -5.9080590942       -0.3517417681       -0.7711162628
 C         -6.7863288690        0.2601096011        0.3324049086
 C         -6.2657696072        1.5709336224        0.9162953780
 H         -6.9109332690        1.8387834943        1.7572838992
 H         -5.2625805785        1.4115787498        1.3158409238
 C         -6.2454532438        2.7519255724       -0.0511730492
 H         -7.2584713914        2.9313272254       -0.4184134125
 H         -5.9383748347        3.6325441166        0.5188105842
 C         -5.3095608231        2.6155064517       -1.2539528371
 H         -5.2182530665        3.6062788151       -1.7086929794
 H         -5.7386705046        1.9668511998       -2.0128695555
 C         -3.8936500837        2.1616935789       -0.9125363024
 H         -3.4870525987        2.8111500841       -0.1290756533
 H         -3.2529113663        2.3307982793       -1.7864546451
 H         -6.8544355315       -0.4632254851        1.1487055245
 H         -7.7899693565        0.4104298764       -0.0689895283
 H         -6.0870144838        0.1362031468       -1.7246689057
 H         -6.1734196804       -1.4054930619       -0.8817863172
 O         -4.0299284145       -1.5408268675       -0.0245362132
 C         -2.7306364215       -1.8035924954        0.3832201022
 O         -2.5407011585       -2.9891394996        0.7089975816
 O         -1.4061162333        1.5264998535       -0.0681548701
 C         -0.3820709157       -0.9099852448        0.8174054043
 C          0.5123626185       -1.3405236816       -0.3165506989
 C          0.1428610850       -2.3462248721       -1.2032772623
 C          1.0023806288       -2.7360649253       -2.2144761110
 C          2.2511922340       -2.1538084460       -2.3438172819
 C          2.6311281727       -1.1498881260       -1.4612645367
 C          1.7512731100       -0.7364499943       -0.4709469241
 H          2.0403886776        0.0626715596        0.1934331863
 N          3.8882783443       -0.5385160995       -1.5554483756
 S          4.7271611746       -0.1599407545       -0.1542500479
 O          6.1153951774       -0.1256027743       -0.5603484089
 O          4.3963759681       -1.0676687171        0.9182481610
 C          4.1999266503        1.4928324067        0.2415327845
 C          3.6579057967        1.7644422330        1.4818799524
 C          3.2620875234        3.0608644207        1.7709539935
 C          3.4171761447        4.0575904362        0.8202022711
 C          3.9681716008        3.7693352201       -0.4193971146
 C          4.3647259697        2.4752978050       -0.7146378068
 H          4.8000371868        2.2125937578       -1.6643162996
 H          4.0865427102        4.5482576299       -1.1553259335
 H          3.1055319724        5.0648498628        1.0475760866
 H          2.8319765726        3.2859734465        2.7338070765
 H          3.5505341897        0.9594514422        2.1925012735
 H          4.4938834735       -0.9155639896       -2.2697653416
 H          2.9268146970       -2.4735781203       -3.1226373168
 H          0.7030887799       -3.5152219871       -2.8995125192
 H         -0.8171096236       -2.8261218447       -1.0855203799
 H         -0.0623805435        0.1024580672        1.1132286767
 C         -0.2212710178       -1.8044187003        2.0391101345
 C          0.3111809845       -3.2009178300        1.9789368466
 C          1.1414619088       -2.1127688158        2.5873305537
 H          1.2764700935       -2.1066412088        3.6587769496
 H          2.0066683099       -1.7749394491        2.0343957463
 H         -0.1428533172       -3.9388036909        2.6225292059
 H          0.6078060875       -3.5914397121        1.0182497625
 H         -1.0052195412       -1.6266713572        2.7692013127
