  62
        -98.93936204
 C         -2.1150305668       -0.3183762500       -1.0567669135
 C         -2.9375689876        0.8167703433       -0.8476265130
 C         -4.3453513035        0.5352476719       -0.5192485117
 C         -4.7695678224       -0.7378610890       -0.4388169031
 C         -6.1568750147       -1.1597258512       -0.0521648736
 C         -6.2674898527       -1.3803363933        1.4630282196
 C         -5.7026100808       -0.2306491742        2.2974451338
 H         -5.8626464195       -0.4828552581        3.3480027597
 H         -4.6226631597       -0.1750922867        2.1418541831
 C         -6.3295413804        1.1384078831        1.9986378173
 H         -7.2789085875        1.0053163793        1.4786311164
 H         -6.5459793773        1.6380457803        2.9452635589
 C         -5.4370602104        2.0822373038        1.1907056926
 H         -4.4522380904        2.1452222559        1.6600424663
 H         -5.8803685955        3.0809545233        1.2246147103
 C         -5.2443789411        1.7172672957       -0.2866257348
 H         -6.2168825886        1.5601562675       -0.7572368128
 H         -4.7571984260        2.5652151869       -0.7768152886
 H         -7.3188873192       -1.5326144192        1.7137782866
 H         -5.7212553148       -2.2908029992        1.7206783257
 H         -6.8654297348       -0.3981079297       -0.3719170872
 H         -6.3870662497       -2.0953892824       -0.5645987424
 O         -3.9543238501       -1.8020106200       -0.6563621559
 C         -2.6165558272       -1.6193091376       -0.9587697898
 O         -1.9820223743       -2.6809628528       -1.1268489354
 H          1.5593381889       -1.6794324202       -0.7823343250
 C          1.3094472934       -0.9659096199       -0.0118529906
 C          0.2076186476       -0.1360485376       -0.1577540657
 C         -0.0892952636        0.7675600035        0.8589913890
 C          0.6946284858        0.8276591329        1.9959796598
 C          1.8011740665        0.0067466441        2.1320089045
 C          2.1116143118       -0.8919656281        1.1195024725
 N          3.2406114870       -1.7316054823        1.2138094705
 S          4.4451212283       -1.5297079999        0.0671639901
 O          3.9136380988       -1.7845985905       -1.2459513745
 O          5.5333380659       -2.3739766210        0.5042293599
 C          4.9093143364        0.1861160870        0.2239742636
 C          4.1489565166        1.1439447197       -0.4167316335
 C          4.4621142995        2.4813564500       -0.2328460681
 C          5.5240911087        2.8358080597        0.5850946553
 C          6.2798447502        1.8618118793        1.2203224798
 C          5.9681047477        0.5231873121        1.0445207354
 H          6.5306581849       -0.2672161238        1.5147373967
 H          7.1073314755        2.1409848553        1.8525157474
 H          5.7642780017        3.8777848500        0.7259621919
 H          3.8731576888        3.2366733219       -0.7282090615
 H          3.3341991654        0.8326064606       -1.0491596723
 H          3.6567541333       -1.7478251311        2.1348666964
 H          2.4173104111        0.0575854596        3.0171707803
 H          0.4490271855        1.5283181334        2.7794118200
 H         -0.9349959990        1.4272320422        0.7407150708
 C         -0.6387623529       -0.2199483955       -1.4030964239
 H         -0.3955896516       -1.1736358670       -1.8982212709
 C         -0.3314677998        0.8983583820       -2.3929969459
 C          0.5750295756        2.0459839221       -2.0735936515
 C          1.0314270746        0.9747357466       -3.0153898659
 H          1.1073006487        1.2052164869       -4.0674398343
 H          1.7730551646        0.2667846279       -2.6719696276
 H          0.3157888660        3.0126441497       -2.4773992725
 H          1.0152595806        2.0889050919       -1.0895397892
 H         -1.1733431976        1.1146452419       -3.0412652836
 O         -2.5392506486        2.0067950237       -0.9228135766
