  62
        -98.93690929
 C         -1.9344391070       -1.4615021706        0.0798542656
 C         -2.2850285624       -0.4449038558       -0.8403047073
 C         -3.6494525151        0.0920902684       -0.7214358059
 C         -4.4828775371       -0.3854364843        0.2189686522
 C         -5.9139806734        0.0215424855        0.4495242640
 C         -6.1428380734        1.4727726150        0.9145865721
 C         -6.4332711954        2.4630285003       -0.2201044341
 H         -6.8432519013        1.9143048910       -1.0689337138
 H         -7.2102651515        3.1558614226        0.1093653505
 C         -5.2468054130        3.3128156964       -0.6854884691
 H         -5.5190209713        3.7742075047       -1.6373091193
 H         -5.0805968568        4.1182499096        0.0336893936
 C         -3.9204304952        2.5718185327       -0.8560668823
 H         -3.2242449618        3.2349575184       -1.3740161006
 H         -3.4824117774        2.3729056898        0.1253410449
 C         -4.0233164270        1.2364390988       -1.6185933688
 H         -5.0263942167        1.0978583003       -2.0187278354
 H         -3.3163983619        1.2280347456       -2.4505170746
 H         -5.2876487141        1.8058655700        1.5023079326
 H         -7.0063719555        1.4578998629        1.5814839264
 H         -6.4823401611       -0.1591396873       -0.4656867658
 H         -6.2893085125       -0.6605069412        1.2151785300
 O         -4.1116883549       -1.3687339968        1.0825286541
 C         -2.8431620467       -1.9167235826        1.0423890074
 O         -2.6444246160       -2.8009354514        1.8990737264
 H          0.2810514479        0.3384405679       -0.5783668277
 C          0.7862740964       -0.0249039640        0.3040676929
 C          0.4570206811       -1.2748395245        0.8088883076
 C          1.1143259543       -1.7260679379        1.9471127939
 C          2.0722081613       -0.9415861160        2.5664913797
 C          2.3933172440        0.3064011291        2.0641449490
 C          1.7385910676        0.7665790979        0.9286210183
 N          2.0640803044        2.0310700837        0.4030849255
 S          3.6919538415        2.3316546754        0.1495735919
 O          4.3022689390        2.7482314715        1.3880218633
 O          3.7471684899        3.2896997914       -0.9321819641
 C          4.3693638719        0.7607351279       -0.3581427164
 C          3.8699067906        0.1793052235       -1.5068634720
 C          4.3450115624       -1.0642479046       -1.8887750339
 C          5.3045014556       -1.7035341446       -1.1186672968
 C          5.7991589522       -1.1043544113        0.0290148283
 C          5.3264089523        0.1391070992        0.4172188410
 H          5.6790905123        0.6389134011        1.3045752163
 H          6.5464571757       -1.6030418528        0.6248304044
 H          5.6676800729       -2.6744731639       -1.4163357655
 H          3.9609826399       -1.5306546752       -2.7818106759
 H          3.1249086759        0.7016228939       -2.0858681004
 H          1.5189003951        2.2747992938       -0.4114554970
 H          3.1335761520        0.9334136606        2.5344778238
 H          2.5733885451       -1.3048076691        3.4505592377
 H          0.8604994126       -2.6942452752        2.3533619528
 C         -0.5707411181       -2.1352773567        0.1129455418
 H         -0.7071527368       -3.0437837509        0.7141073255
 C         -0.0738499065       -2.5410833889       -1.2625045623
 C          0.9837961948       -3.5962298122       -1.3682812628
 C         -0.4205703610       -3.8961892107       -1.7975904914
 H         -0.6313144396       -3.9948236832       -2.8519399878
 H         -1.0198667654       -4.5421988282       -1.1722480072
 H          1.7417247316       -3.4906648906       -2.1286829814
 H          1.3395085572       -4.0412330624       -0.4516277912
 H         -0.0433792254       -1.7210505278       -1.9671565129
 O         -1.5193454950        0.0119144481       -1.7325296391
