  62
        -98.93823045
 C         -1.2439955078       -1.5478425218       -0.1179459031
 C         -1.2859273198       -0.1413013715       -0.2646922416
 C         -2.4569104223        0.5419521529        0.3215547461
 C         -3.3911442185       -0.1800048350        0.9622896249
 C         -4.6693229922        0.3140524645        1.5815416280
 C         -5.8359087947        0.1983294266        0.5857925960
 C         -6.0142842749        1.4016001777       -0.3392878605
 H         -6.7803578432        1.1371097973       -1.0719527620
 H         -6.3939950027        2.2457789797        0.2401596866
 C         -4.7533084909        1.8470375623       -1.0844770892
 H         -5.0672469523        2.4303631612       -1.9523757365
 H         -4.2196134746        0.9720403376       -1.4598910813
 C         -3.8134133160        2.7032750374       -0.2227938773
 H         -4.3417205242        3.0121756668        0.6788953633
 H         -3.5633907438        3.6177647968       -0.7641821777
 C         -2.4829904267        2.0370863189        0.1583369529
 H         -1.7381536007        2.2405837579       -0.6166998640
 H         -2.1049985704        2.4922467155        1.0792669576
 H         -5.6793152372       -0.7047478620       -0.0099325240
 H         -6.7632631090        0.0620036228        1.1459963196
 H         -4.8740208639       -0.3376611891        2.4335088710
 H         -4.5567144077        1.3331660794        1.9387937593
 O         -3.3091565695       -1.5333775527        1.0877503907
 C         -2.2523265321       -2.2435822651        0.5561873766
 O         -2.3207416955       -3.4759344619        0.7408806397
 H          1.5851436865       -0.3124928376       -0.2697053594
 C          1.8628282826       -1.1765104975        0.3114891452
 C          1.0959736528       -2.3313849340        0.2399072377
 C          1.4529591208       -3.4225393297        1.0246075132
 C          2.5597652910       -3.3624754588        1.8520256134
 C          3.3366696265       -2.2195496777        1.9018339638
 C          2.9814431784       -1.1185900046        1.1294571677
 N          3.7292017366        0.0629525422        1.1908056011
 S          3.8735959380        1.0823183223       -0.1261068793
 O          3.8989310853        0.3536128417       -1.3727302592
 O          5.0642978042        1.8569138472        0.1663794483
 C          2.4735332464        2.1751229116       -0.0426702970
 C          1.9171748472        2.6414889935       -1.2152171168
 C          0.8846567268        3.5620293657       -1.1474388490
 C          0.4291389096        3.9978076644        0.0860447716
 C          0.9950425068        3.5143867630        1.2553072895
 C          2.0310124734        2.5973916948        1.1942564950
 H          2.4924574669        2.2001597703        2.0833864707
 H          0.6311142987        3.8482379175        2.2141891488
 H         -0.3777927802        4.7122111279        0.1365163361
 H          0.4351549073        3.9287776943       -2.0565769651
 H          2.2913430831        2.2661518706       -2.1544746597
 H          4.5818534393        0.0122629736        1.7281766059
 H          4.2077652674       -2.1740485527        2.5377657632
 H          2.8262012808       -4.2166107836        2.4561012255
 H          0.8467524240       -4.3163866180        0.9893408006
 C         -0.1125956652       -2.4067553028       -0.6624245329
 H         -0.4884737464       -3.4385900925       -0.6301248743
 C          0.2523568574       -2.0799162705       -2.0969675832
 C          0.9339670618       -3.1255778774       -2.9249615906
 C         -0.4878419276       -2.7488901208       -3.2137848796
 H         -0.7017638478       -2.1784896594       -4.1051791949
 H         -1.2644204750       -3.4519643855       -2.9482581311
 H          1.1199072109       -4.0851173446       -2.4659275602
 H          1.7030728231       -2.8127597812       -3.6146145636
 H          0.5513599264       -1.0510353364       -2.2465008672
 O         -0.4084518505        0.5371947428       -0.8605865665
