  62
        -98.94472220
 C          2.0233422598        1.3708437790        0.3064029133
 C          2.6529712470        0.7563637486       -0.8031028164
 C          3.7978700330       -0.1107241369       -0.4877668288
 C          4.1773656331       -0.2647871875        0.7938750989
 C          5.2843854411       -1.1653424298        1.2584657411
 C          4.7532183070       -2.5652258456        1.5980000696
 C          3.8611109591       -3.1680094176        0.5123436472
 H          3.5684874785       -4.1655324836        0.8477888597
 H          2.9456755777       -2.5767638822        0.4310758562
 C          4.5215845689       -3.2667092610       -0.8699097653
 H          5.6046252930       -3.1874064427       -0.7689990699
 H          4.3061632200       -4.2511260429       -1.2907499694
 C          4.0297922585       -2.2316984601       -1.8836849511
 H          4.3929586234       -2.5256257813       -2.8720666553
 H          2.9370866701       -2.2443734346       -1.9209551271
 C          4.4870667900       -0.7881319599       -1.6383619756
 H          5.5710532606       -0.7618125466       -1.5104556017
 H          4.2300232109       -0.2041561015       -2.5269164765
 H          5.6046095565       -3.2240077024        1.7778202909
 H          4.1726304376       -2.5012238960        2.5213830024
 H          6.0428640817       -1.2316343883        0.4811170034
 H          5.7308934151       -0.7292365575        2.1536400587
 O          3.5508712486        0.3473151510        1.8315017773
 C          2.4512822267        1.1633027425        1.6167689711
 O          1.9460309622        1.6319455142        2.6577447321
 O          2.2789717814        0.9187553015       -1.9931432017
 C          0.8171894619        2.2666579070        0.0883782170
 C         -0.2847478118        1.4877257571       -0.5893069151
 C         -1.0148191102        1.9715034328       -1.6664247688
 C         -2.0062497461        1.1975642935       -2.2460351886
 C         -2.2981858645       -0.0636566035       -1.7619135017
 C         -1.5902762904       -0.5473620808       -0.6680992985
 C         -0.6010900369        0.2306992428       -0.0874049719
 H         -0.0490100619       -0.1494548982        0.7639992375
 N         -1.8913393800       -1.8191904598       -0.1535112287
 S         -3.5016740336       -2.2436398787        0.0101432721
 O         -3.5320917432       -3.1958994977        1.0982315842
 O         -4.0091656380       -2.7180269398       -1.2531940579
 C         -4.3447770915       -0.7395368005        0.4693228370
 C         -3.9417424405       -0.0909048027        1.6198328108
 C         -4.5668740008        1.0929521024        1.9756854199
 C         -5.5802596835        1.6049613689        1.1795812263
 C         -5.9778038472        0.9386225739        0.0310934449
 C         -5.3540383833       -0.2445965835       -0.3311236443
 H         -5.6284291531       -0.7933172396       -1.2173378792
 H         -6.7674251266        1.3379445929       -0.5846509448
 H         -6.0622611458        2.5285593797        1.4585474906
 H         -4.2580117877        1.6119210550        2.8690153815
 H         -3.1533573893       -0.5155929286        2.2209819555
 H         -1.3572852707       -2.0720142579        0.6642654989
 H         -3.0509881250       -0.6863145262       -2.2173495019
 H         -2.5560568101        1.5806845100       -3.0918684819
 H         -0.8001866452        2.9504593770       -2.0615605930
 H          0.4654165815        2.5517162072        1.0908035098
 C          1.2238700593        3.5194967012       -0.6588620286
 C          0.4846904736        4.8041307809       -0.4391254195
 C          1.8707424996        4.6347283043        0.1043590438
 H          2.6802452819        5.1767493731       -0.3610439835
 H          1.9930059470        4.4999584697        1.1695506497
 H          0.3439854574        5.4684124288       -1.2783551096
 H         -0.3368315161        4.7954562289        0.2609326664
 H          1.6038673894        3.3067978498       -1.6512923917
