  62
        -98.94111866
 C         -1.9042682483       -0.9212016303        0.2654683604
 C         -2.3067722144        0.0768401633        1.1870965390
 C         -2.5230002564        1.4215488800        0.6397292102
 C         -2.2729669678        1.6458663561       -0.6628621560
 C         -2.4784869985        2.9580209407       -1.3622681215
 C         -3.8893631217        3.0590017705       -1.9589302851
 C         -5.0017019601        2.6904194665       -0.9772298681
 H         -5.9523969668        2.8251261397       -1.4972930988
 H         -4.9183326092        1.6301305004       -0.7279465374
 C         -5.0049050918        3.5154731533        0.3172221514
 H         -4.4157891239        4.4227095341        0.1794472966
 H         -6.0298921163        3.8228733038        0.5343590305
 C         -4.4951326733        2.7646316224        1.5488449364
 H         -4.7409256146        3.3563628737        2.4344950380
 H         -5.0178760833        1.8090189815        1.6384361089
 C         -2.9857900308        2.4922981617        1.5875814952
 H         -2.7360529594        2.1307677587        2.5897058488
 H         -2.4373999564        3.4209806355        1.4143661063
 H         -4.0399017437        4.0790990688       -2.3166412972
 H         -3.9506632608        2.3846160604       -2.8161015164
 H         -2.3111232198        3.7679379613       -0.6545328687
 H         -1.7427350954        3.0335490136       -2.1649222939
 O         -1.8430491060        0.6777217258       -1.5091711987
 C         -1.6317513145       -0.6218346811       -1.0711666587
 O         -1.2230147348       -1.3912305151       -1.9610528296
 O         -2.4729162136       -0.1480328286        2.4176552817
 C         -1.6166555802       -2.3096552411        0.8110605110
 C         -0.2520028865       -2.7484666979        0.3416881137
 C          0.0039112165       -3.9473012660       -0.3089718800
 C          1.2833079176       -4.2423871676       -0.7485969883
 C          2.3217911855       -3.3491941294       -0.5656968856
 C          2.0769381120       -2.1503624976        0.0962545796
 C          0.8051550534       -1.8740385888        0.5645965810
 H          0.6235058780       -0.9376229358        1.0742637927
 N          3.1105572596       -1.2211467163        0.3160876861
 S          2.7178821644        0.4213413512        0.3127752900
 O          2.2156031725        0.7778667920        1.6175693627
 O          1.8701981829        0.7454980197       -0.8126333918
 C          4.3407618234        1.1274175196        0.0895902707
 C          5.1688272670        1.2498192835        1.1894972294
 C          6.4429604922        1.7659824858        1.0143504928
 C          6.8660996163        2.1477415303       -0.2502872374
 C          6.0233871903        2.0206865964       -1.3443160806
 C          4.7481031461        1.5039815507       -1.1762095957
 H          4.0541580741        1.3935959193       -1.9943670581
 H          6.3531003543        2.3212365646       -2.3257576375
 H          7.8579165164        2.5496619043       -0.3839683243
 H          7.0996642883        1.8688732905        1.8630036022
 H          4.7912161177        0.9482209199        2.1524989565
 H          3.9248508564       -1.4040484722       -0.2550009781
 H          3.3115669427       -3.5701489483       -0.9353624634
 H          1.4686647293       -5.1739287721       -1.2617072018
 H         -0.8011345289       -4.6376612234       -0.4997543699
 H         -1.5651167841       -2.1632508939        1.9041094639
 C         -2.7122833405       -3.3349525020        0.5637183545
 C         -4.1293874389       -2.9075841706        0.3279320470
 C         -3.3399859823       -3.5289487654       -0.7828784604
 H         -3.5936561351       -4.5334636027       -1.0887365802
 H         -2.9946720068       -2.8990119966       -1.5871613615
 H         -4.9216810900       -3.4816863631        0.7844610938
 H         -4.3284905472       -1.8465466371        0.2812649532
 H         -2.5773673954       -4.2253472815        1.1702694225
