  62
        -98.93381119
 C          2.5715120840       -1.1521874630       -0.1362920155
 C          3.2074638998       -0.3342412884       -1.1049486362
 C          4.1882565723        0.6307282033       -0.5999315434
 C          4.4347748877        0.6979335049        0.7208897472
 C          5.4210262181        1.6143545396        1.3926970581
 C          4.8749396610        3.0213243631        1.6720115633
 C          4.7134665643        3.9132562537        0.4403492660
 H          4.5353620045        4.9282876612        0.8009033994
 H          5.6475629821        3.9271989887       -0.1220908125
 C          3.5583026222        3.5101381215       -0.4869145483
 H          2.8758952237        2.8452448715        0.0479686586
 H          2.9865156425        4.3986310731       -0.7643436436
 C          3.9952595247        2.8301167997       -1.7845837493
 H          4.5695065573        3.5332258376       -2.3921054045
 H          3.0987649553        2.5547498175       -2.3463223939
 C          4.8342725940        1.5616949396       -1.5813252412
 H          4.9049616547        1.0401773214       -2.5390980197
 H          5.8391681936        1.8243403212       -1.2514172019
 H          3.9138001293        2.9276169651        2.1826754925
 H          5.5701666770        3.5097744585        2.3585888049
 H          5.6769316743        1.1489817396        2.3468907280
 H          6.3250976866        1.6866929299        0.7874569586
 O          3.8039089640       -0.0994043327        1.6196495077
 C          2.8452512260       -1.0280797382        1.2274655841
 O          2.3411045091       -1.6506338347        2.1764838580
 O          2.9660656161       -0.4092664320       -2.3412508111
 C          1.5372284525       -2.1491880852       -0.6450484143
 C          0.1859611220       -1.8096107135       -0.0665752494
 C         -0.3494080066       -2.3185327894        1.1107446000
 C         -1.5894318985       -1.8963002702        1.5600982535
 C         -2.3225991460       -0.9541720224        0.8633558061
 C         -1.7966676485       -0.4265415171       -0.3082682398
 C         -0.5603572686       -0.8611079275       -0.7613903361
 H         -0.1547676525       -0.4419877414       -1.6742637553
 N         -2.5162062805        0.5525898152       -1.0154348285
 S         -4.1285582128        0.2528757771       -1.3750495190
 O         -4.3857242506       -1.1624174092       -1.5071826759
 O         -4.4136455125        1.0696571851       -2.5345174420
 C         -5.0131550586        0.9070052560        0.0245772122
 C         -5.8994905421        0.1035453736        0.7146881313
 C         -6.5889662348        0.6377755507        1.7921853848
 C         -6.3815066740        1.9589639252        2.1576157793
 C         -5.4895337198        2.7533816198        1.4524772020
 C         -4.7983376062        2.2259383298        0.3735171468
 H         -4.1001396529        2.8104978537       -0.2022006325
 H         -5.3307996457        3.7803523537        1.7398086732
 H         -6.9184641902        2.3724309376        2.9966865329
 H         -7.2833887225        0.0222576262        2.3411262455
 H         -6.0245739349       -0.9195409152        0.3975335371
 H         -2.0303987778        0.9064197941       -1.8269845518
 H         -3.2858624485       -0.6243313335        1.2166115226
 H         -1.9859678702       -2.3058204026        2.4768258647
 H          0.2080015171       -3.0210536590        1.7031440920
 H          1.4725135944       -1.9217417754       -1.7212033252
 C          2.0467409239       -3.5833710821       -0.5863266781
 C          2.2387531012       -4.4084619353        0.6492034638
 C          1.1681873635       -4.7717508792       -0.3351081339
 H          1.3137249543       -5.6506732882       -0.9455444226
 H          0.1392898842       -4.5899153888       -0.0670907236
 H          3.1214696819       -5.0310958354        0.6931453064
 H          1.9763507172       -3.9807314735        1.6019469895
 H          2.8167403057       -3.7190777272       -1.3427259390
