  62
        -98.94016005
 C         -0.5604478694       -1.7931754114        0.7788360449
 C          0.4339899346       -2.5123527872        0.0672693938
 C          1.8282614258       -2.1350706010        0.3209624192
 C          2.0979416353       -1.1707312855        1.2176268104
 C          3.4594526119       -0.6430621563        1.5818916940
 C          4.1788534376        0.1242879158        0.4540716319
 C          5.1685264671       -0.7289172691       -0.3493718740
 H          6.0609744285       -0.1337626224       -0.5538403234
 H          5.4868967132       -1.5720164468        0.2653877608
 C          4.6571869812       -1.2456058498       -1.6978092450
 H          4.7018582548       -0.4352332882       -2.4294628846
 H          5.3361036946       -2.0327965646       -2.0344155184
 C          3.2258449096       -1.7849625381       -1.7109989612
 H          2.5179849069       -0.9511521678       -1.6876268984
 H          3.0638218509       -2.2943048954       -2.6638005165
 C          2.8849535058       -2.7442619345       -0.5526393704
 H          3.7762819489       -2.9843303141        0.0254742711
 H          2.4686226960       -3.6721241746       -0.9504770809
 H          3.4373173123        0.5679162519       -0.2131567410
 H          4.7312297393        0.9429291647        0.9194281977
 H          4.0864509839       -1.4713951822        1.9184503416
 H          3.3019315795        0.0249788575        2.4309633397
 O          1.1239673860       -0.5536727251        1.9340135812
 C         -0.2233783150       -0.7924297891        1.6907279165
 O         -0.9784057112       -0.0570733616        2.3558707956
 O          0.1607304139       -3.4291270762       -0.7552843417
 C         -1.9955193342       -2.0453560847        0.3523164850
 C         -2.3224213145       -1.1555341125       -0.8282309121
 C         -3.1068874811       -1.6040805620       -1.8844020752
 C         -3.3358063368       -0.7933966355       -2.9823779883
 C         -2.7593106183        0.4619658564       -3.0679681309
 C         -1.9775416204        0.9199148496       -2.0143626208
 C         -1.8009527145        0.1269513933       -0.8920498803
 H         -1.2067857131        0.5058064340       -0.0765796093
 N         -1.3470707150        2.1723309908       -2.0470107663
 S          0.1690521111        2.3388437681       -1.3500181866
 O          0.7390882613        3.4959479469       -2.0125177734
 O          0.9476976901        1.1248838183       -1.4490481198
 C         -0.1284848550        2.7595059939        0.3526354531
 C          0.8938876221        2.5479657595        1.2548134903
 C          0.7037117024        2.8992631315        2.5805969773
 C         -0.4994753882        3.4582411220        2.9785530187
 C         -1.5136566411        3.6714333401        2.0587706908
 C         -1.3297662260        3.3232745440        0.7306090601
 H         -2.1041793307        3.4631173620       -0.0055319269
 H         -2.4516523548        4.0998919516        2.3738271660
 H         -0.6496275780        3.7207845615        4.0138977833
 H          1.4895405468        2.7233945704        3.2977497464
 H          1.8090996055        2.0938270816        0.9089806874
 H         -1.4187993766        2.6750632214       -2.9195045340
 H         -2.9033332466        1.0769828170       -3.9430420598
 H         -3.9466004326       -1.1535166407       -3.7961797381
 H         -3.5197213966       -2.6010025086       -1.8534249148
 H         -2.0238887001       -3.0851326329       -0.0030270897
 C         -3.0290392590       -1.8830748134        1.4477683915
 C         -4.3102661834       -2.6564683849        1.3728978717
 C         -3.2772656494       -3.0147522310        2.3976900291
 H         -3.4671620164       -2.7811777520        3.4340625231
 H         -2.7075209868       -3.9211082596        2.2524549609
 H         -5.2182810999       -2.1768999809        1.7039795512
 H         -4.4465286498       -3.3290835250        0.5399761031
 H         -3.0673328267       -0.8802204163        1.8520594746
