  62
        -98.94594121
 C         -1.5771844836       -1.5638860612       -0.2724132238
 C         -1.4459299922       -0.1978586330       -0.6216797388
 C         -2.7044134322        0.5526085055       -0.7431084017
 C         -3.8729998292       -0.0798355476       -0.5327912187
 C         -5.2198437876        0.5819443326       -0.5558635230
 C         -5.6132423088        1.0844492613        0.8407071070
 C         -4.5206812662        1.8952919985        1.5382953112
 H         -4.9220633482        2.2173390488        2.5017399907
 H         -3.6698598986        1.2425989077        1.7470897855
 C         -4.0371488521        3.1207235072        0.7502787181
 H         -3.9689443720        3.9702518993        1.4330382754
 H         -4.7692074172        3.3794719450       -0.0156714786
 C         -2.6611447736        2.9567430550        0.1017401762
 H         -2.3300264508        3.9405615855       -0.2401220013
 H         -1.9414952538        2.6075085157        0.8462568731
 C         -2.6025049009        2.0081515876       -1.1016097038
 H         -3.3718040373        2.2822614867       -1.8262019375
 H         -1.6220141088        2.1278165221       -1.5709504594
 H         -5.8489274583        0.2197231932        1.4655566040
 H         -6.5159930241        1.6910458018        0.7475388742
 H         -5.1995309461        1.4117360646       -1.2595915710
 H         -5.9581150774       -0.1486433513       -0.8906951132
 O         -3.9578206159       -1.3984371953       -0.2171428011
 C         -2.8159702297       -2.1686529089       -0.0647568589
 O         -3.0326836523       -3.3557791493        0.2539881134
 H          2.2602478852       -1.4195240240       -0.2484641870
 C          1.8132187460       -1.3154251026        0.7250731302
 C          0.5325770566       -1.7809286152        0.9720602675
 C          0.0032436190       -1.6355776532        2.2528552321
 C          0.7358124914       -1.0336713982        3.2566306336
 C          2.0080934420       -0.5510464955        3.0013242924
 C          2.5457539219       -0.6943635266        1.7285004110
 N          3.8371208881       -0.2290842316        1.4450751326
 S          4.2176002625        0.4045797524       -0.0506861340
 O          4.3449728663       -0.6524438455       -1.0230791067
 O          5.4237439224        1.1700023215        0.1943538597
 C          2.9059979667        1.5223151909       -0.5096590603
 C          2.4248923436        2.4125288784        0.4285495153
 C          1.4557265475        3.3254177937        0.0491783399
 C          0.9951138717        3.3413267972       -1.2572732063
 C          1.4879001399        2.4412882512       -2.1868851053
 C          2.4505582670        1.5200105069       -1.8105264567
 H          2.8504587460        0.7933235906       -2.5000572939
 H          1.1186644772        2.4456330529       -3.2003841314
 H          0.2416298466        4.0558794085       -1.5505903456
 H          1.0592486372        4.0193888950        0.7733636264
 H          2.8038139947        2.3856809306        1.4376077347
 H          4.2860422170        0.2790775467        2.1924422866
 H          2.5805032824       -0.0723472932        3.7812391380
 H          0.3120887600       -0.9299997526        4.2442521109
 H         -0.9969391936       -2.0005827113        2.4457466668
 C         -0.3298992147       -2.4118480349       -0.0931744937
 H         -0.6717969081       -3.3907531371        0.2721258052
 C          0.3782163167       -2.6039844364       -1.4169161802
 C          1.3005376543       -3.7687879169       -1.6089860945
 C         -0.0257961016       -3.7391216257       -2.3064243704
 H         -0.0451944034       -3.5766816035       -3.3736685167
 H         -0.8067538869       -4.3957161772       -1.9507747272
 H          1.4223715186       -4.4502367055       -0.7804302223
 H          2.1974116364       -3.6246826644       -2.1927577901
 H          0.6382429498       -1.6660842358       -1.8944517952
 O         -0.3406326891        0.3670684518       -0.8191635502
