  62
        -98.94450012
 C         -2.6552111386       -1.2895779981        0.1146876672
 C         -2.5671340047       -0.2941703353       -0.8886379926
 C         -3.5281928543        0.8138440558       -0.7784146923
 C         -4.4230895041        0.8188792480        0.2257863376
 C         -5.4171675038        1.9121884497        0.4866868351
 C         -4.8429278490        2.9662739737        1.4436038357
 C         -3.4492971708        3.4610266843        1.0553547941
 H         -3.1604478314        4.2235271747        1.7819917387
 H         -2.7350963437        2.6397068458        1.1537212116
 C         -3.3538670825        4.0448010166       -0.3611511677
 H         -4.3500513695        4.2980847614       -0.7260368382
 H         -2.7774543379        4.9713802098       -0.3196167861
 C         -2.6588109765        3.1361578763       -1.3772073115
 H         -1.6953632847        2.8064363811       -0.9773594027
 H         -2.4519696834        3.7259863239       -2.2745784890
 C         -3.4516937401        1.8982415855       -1.8159480580
 H         -4.4515324835        2.1971200064       -2.1373178411
 H         -2.9318383741        1.4587815955       -2.6724249568
 H         -5.5326421297        3.8113290954        1.4805501519
 H         -4.7838998195        2.5307461172        2.4436074622
 H         -5.6957488248        2.3762015369       -0.4572980981
 H         -6.3050171803        1.4684120528        0.9400283708
 O         -4.4902829282       -0.1639529073        1.1590256830
 C         -3.6004808201       -1.2232436763        1.1419250276
 O         -3.7533406334       -2.0355108838        2.0755610798
 H          0.3650260739       -1.6910096013       -1.4893125652
 C          0.5972196471       -1.5552209050       -0.4450971865
 C         -0.3271852441       -1.9224724013        0.5198042841
 C         -0.0165814428       -1.7024261181        1.8590157554
 C          1.1905221132       -1.1333752424        2.2186860466
 C          2.1080090291       -0.7599931497        1.2513784550
 C          1.7992492766       -0.9586190819       -0.0869239834
 N          2.7153742290       -0.5652277696       -1.0780722988
 S          3.3765494851        0.9745621771       -0.9690659382
 O          2.4984703947        1.8911420482       -0.2790016628
 O          3.7426382204        1.3277279888       -2.3235403051
 C          4.8641088467        0.7208653060       -0.0216898193
 C          5.7498131936       -0.2492596786       -0.4486198588
 C          6.9160526785       -0.4541613718        0.2709748512
 C          7.1778697855        0.3124137541        1.3968921190
 C          6.2808812036        1.2853013677        1.8102656001
 C          5.1115767962        1.4943535174        1.0953221603
 H          4.3820914496        2.2349767363        1.3828005513
 H          6.4858642717        1.8808267698        2.6854082298
 H          8.0861607523        0.1506670568        1.9556104138
 H          7.6159965273       -1.2098057758       -0.0474043095
 H          5.5103785975       -0.8207338355       -1.3296714547
 H          2.3834178481       -0.7388810641       -2.0164093306
 H          3.0449846366       -0.3021605180        1.5235886008
 H          1.4191524364       -0.9731896749        3.2614588920
 H         -0.7444317587       -1.9692606026        2.6129444211
 C         -1.6886677497       -2.4641414150        0.1580733521
 H         -2.0307659848       -3.1032395067        0.9825844337
 C         -1.7098907882       -3.2718054798       -1.1225620921
 C         -1.0894177065       -4.6356134602       -1.1352157907
 C         -2.5791376785       -4.4889838159       -1.2033854394
 H         -3.0776640894       -4.7035745453       -2.1368154860
 H         -3.1600182441       -4.7469041243       -0.3298716492
 H         -0.6572902761       -4.9931900992       -0.2128857478
 H         -0.5632783691       -4.9554178980       -2.0215950264
 H         -1.6267784661       -2.6672463868       -2.0167506217
 O         -1.7395769051       -0.3185005748       -1.8383968259
