  62
        -98.94367456
 C         -2.6265207505       -0.1545780713       -0.2252430263
 C         -2.1711102836       -0.9445405318        0.8597086164
 C         -1.7286110767       -2.3075768695        0.5210400771
 C         -1.7446524977       -2.7153049216       -0.7595911990
 C         -1.2820447545       -4.0587404406       -1.2441722260
 C          0.1997343746       -4.0373241649       -1.6410423752
 C          1.1205019326       -3.4269107133       -0.5835421190
 H          2.1446608032       -3.5236362762       -0.9526099976
 H          0.9180736697       -2.3559456150       -0.5003574079
 C          1.0157299703       -4.0744089883        0.8040360940
 H          2.0243788439       -4.2163214642        1.1979190978
 H          0.5561012455       -5.0606744460        0.7199287273
 C          0.2521520836       -3.2420928971        1.8361286871
 H          0.6407088097       -2.2202304506        1.8396937333
 H          0.4434567974       -3.6681734685        2.8253168491
 C         -1.2699594084       -3.1835150216        1.6529662400
 H         -1.6670805972       -4.1952770368        1.5400621056
 H         -1.6951508553       -2.7452796817        2.5608664836
 H          0.5133598631       -5.0622989691       -1.8500227896
 H          0.3042604459       -3.4528810832       -2.5580982450
 H         -1.4480989828       -4.7961202867       -0.4609210733
 H         -1.8777838867       -4.3289354189       -2.1181359305
 O         -2.1719918069       -1.9257144441       -1.7782902100
 C         -2.6009351379       -0.6335089826       -1.5377181724
 O         -2.9551587469       -0.0151578395       -2.5638386321
 H         -0.5114285481        0.9564878487        0.7617229236
 C         -0.6510489934        1.8827588629        0.2261488711
 C         -1.9024021286        2.2292342172       -0.2572109972
 C         -2.0459554010        3.4445608136       -0.9178992273
 C         -0.9573401522        4.2766934377       -1.1063255359
 C          0.3010592577        3.8993116584       -0.6723378277
 C          0.4526516087        2.6899990307       -0.0049277285
 N          1.7096388656        2.2485169458        0.4400885623
 S          2.0153309995        0.5893776790        0.2803408474
 O          1.4068683133        0.0928626593       -0.9327596447
 O          1.6502172423       -0.0663516599        1.5093068578
 C          3.7917228140        0.5953886980        0.1203817353
 C          4.5670009446        0.6087049936        1.2644778956
 C          5.9464634779        0.6508120823        1.1379069250
 C          6.5241698752        0.6793676927       -0.1228090341
 C          5.7332033759        0.6627224212       -1.2619454151
 C          4.3528586830        0.6220806964       -1.1423217248
 H          3.6971754300        0.5979740936       -1.9982293251
 H          6.1846659999        0.6810606476       -2.2407796240
 H          7.5979393038        0.7114336010       -0.2184746256
 H          6.5645572305        0.6598252565        2.0210311598
 H          4.0714688755        0.5756812500        2.2208164342
 H          2.4734924700        2.8084719965        0.0861100558
 H          1.1584145546        4.5302747945       -0.8513613625
 H         -1.0834603696        5.2165580918       -1.6218446216
 H         -3.0144759577        3.7251570167       -1.3035657662
 C         -3.0771739364        1.2910241183       -0.0913336621
 H         -3.7595998821        1.4720916337       -0.9348596805
 C         -3.8194925969        1.5977717268        1.1945992747
 C         -4.8528533955        2.6823865653        1.2096329888
 C         -5.2713926363        1.2467392837        1.3066960735
 H         -5.6364266029        0.8714399201        2.2504990088
 H         -5.7405217835        0.7925146768        0.4457766424
 H         -5.0528886289        3.2024517398        0.2853621326
 H         -4.9318551594        3.3016476467        2.0897166219
 H         -3.2091344625        1.4691644216        2.0788508167
 O         -2.1344643872       -0.5607900416        2.0593820800
