  62
        -98.94093427
 C         -1.8728356724       -1.3243416906        0.6348937982
 C         -1.8059246926        0.0121309104        1.1076379131
 C         -3.0234819918        0.8164684952        0.9680907132
 C         -4.1337357128        0.2545718260        0.4569506385
 C         -5.4739746766        0.9210625266        0.3010654037
 C         -5.6209082424        1.7457226278       -0.9848033775
 C         -4.8303522921        3.0542177780       -1.0093670562
 H         -5.0575182645        3.6313672045       -0.1124931968
 H         -5.1881915432        3.6289909684       -1.8658814440
 C         -3.3119966811        2.8694808490       -1.1368538505
 H         -2.9239798660        3.5538009712       -1.8945290873
 H         -3.0966057370        1.8557224618       -1.4825177315
 C         -2.5278494971        3.1286681528        0.1495767576
 H         -2.6198385549        4.1804264941        0.4295657344
 H         -1.4745785172        2.9204355060       -0.0538532570
 C         -2.9617246566        2.2662923122        1.3426155047
 H         -3.9263923920        2.6044049083        1.7208197007
 H         -2.2184357162        2.3728715106        2.1367656197
 H         -6.6811370857        1.9826191811       -1.1003590316
 H         -5.3249765251        1.1248530632       -1.8335755226
 H         -5.6681705682        1.5561056631        1.1660619286
 H         -6.2175218605        0.1211898336        0.2832475297
 O         -4.1664509433       -1.0347076814        0.0331265928
 C         -3.0326833298       -1.8441005185        0.0589611313
 O         -3.2171567511       -2.9670907766       -0.4430011554
 O         -0.7711163609        0.5043350346        1.6312124519
 C         -0.5909058127       -2.1296090346        0.7490117967
 C          0.3359855154       -1.7852993447       -0.3897017264
 C         -0.1245568475       -1.7448667704       -1.7021391852
 C          0.7353452149       -1.4184988425       -2.7342436063
 C          2.0611377777       -1.1146043087       -2.4771846167
 C          2.5321275609       -1.1522833947       -1.1696921133
 C          1.6676045001       -1.4940445950       -0.1373477717
 H          2.0454460906       -1.5216965062        0.8731000552
 N          3.8793138764       -0.8803138503       -0.8921344230
 S          4.3571190733        0.0283989692        0.4285410392
 O          5.7724274442        0.2362046957        0.2165174252
 O          3.9880780013       -0.6439761385        1.6473844579
 C          3.5005322587        1.5842895353        0.2717236247
 C          2.2361434165        1.7400744262        0.8017852965
 C          1.5886228252        2.9542448006        0.6340944398
 C          2.2040081280        3.9831289034       -0.0603168651
 C          3.4749465996        3.8095220905       -0.5886705294
 C          4.1294760520        2.6004613587       -0.4234110624
 H          5.1231085562        2.4277851949       -0.8043513780
 H          3.9553318995        4.6114863768       -1.1258469908
 H          1.6916887838        4.9239544935       -0.1867943891
 H          0.6015665784        3.0717892178        1.0524116813
 H          1.7558233876        0.9353340440        1.3341046785
 H          4.4328703572       -0.6434812257       -1.7026637601
 H          2.7291458316       -0.8549555235       -3.2841328685
 H          0.3689075870       -1.3939902707       -3.7494845175
 H         -1.1609645020       -1.9779773973       -1.9006654066
 H         -0.1091384344       -1.7739403774        1.6752466869
 C         -0.8025595814       -3.6274995854        0.9031080361
 C         -0.4945855218       -4.6173579816       -0.1757163478
 C          0.3821949493       -4.5382411932        1.0358045234
 H          0.3407585631       -5.3373265022        1.7604369018
 H          1.3626851022       -4.1005706638        0.9176230084
 H         -1.1606920641       -5.4592959237       -0.2849781983
 H         -0.1049173478       -4.2482542743       -1.1113728371
 H         -1.6602024783       -3.8532038420        1.5279895673
