  62
        -98.94216410
 C          0.4224897959       -1.9133918356       -0.5304501325
 C          1.3554452890       -1.7950116817        0.5286253116
 C          2.5983255089       -1.0748706198        0.2140206937
 C          2.7900953656       -0.6022402866       -1.0304099740
 C          3.9383044790        0.2619613276       -1.4671307520
 C          3.6951520106        1.7149417128       -1.0080483464
 C          4.6986048226        2.2265842264        0.0255611764
 H          5.6447531605        2.4497780231       -0.4732342711
 H          4.3012521673        3.1639289367        0.4212839986
 C          4.9927616915        1.2792738793        1.1928332140
 H          5.7136172806        0.5224793668        0.8781606295
 H          5.4817136754        1.8723793706        1.9687265719
 C          3.7753526019        0.5740166724        1.8057575030
 H          2.8621973071        1.1399767349        1.6121179653
 H          3.9070565076        0.5460036247        2.8897571463
 C          3.5798504787       -0.8803863954        1.3346189792
 H          4.5464364394       -1.3127452742        1.0605832376
 H          3.1779053501       -1.4668618808        2.1661931848
 H          2.6872251407        1.7876386091       -0.5916178502
 H          3.7260490240        2.3811392218       -1.8723421040
 H          3.9919031755        0.2116514518       -2.5551960458
 H          4.8686185167       -0.1205045676       -1.0531820488
 O          1.8968532398       -0.7885664164       -2.0369915356
 C          0.6813595162       -1.4179673516       -1.8061302780
 O         -0.0669211377       -1.4709736344       -2.8033401699
 O          1.1536107768       -2.2519917346        1.6844353589
 C         -0.9527838326       -2.4936067069       -0.2662362149
 C         -1.6783904619       -1.6740539541        0.7782104858
 C         -2.6797433711       -2.2046649082        1.5836843774
 C         -3.3238756909       -1.4078957142        2.5144118620
 C         -2.9922053421       -0.0730623019        2.6641825899
 C         -1.9917691931        0.4668560612        1.8638496227
 C         -1.3606949000       -0.3317760884        0.9243453748
 H         -0.5732763254        0.0950400618        0.3248583239
 N         -1.5965564837        1.8021680875        1.9973280943
 S         -0.8020768508        2.6235283386        0.7879237952
 O          0.5445189032        2.1336444133        0.6299128200
 O         -0.9232971744        4.0129105192        1.1764984341
 C         -1.7537776090        2.3338156435       -0.6919329399
 C         -3.0817166007        2.7142962330       -0.6946424576
 C         -3.8462901852        2.4719834737       -1.8236760063
 C         -3.2755608088        1.8498559953       -2.9242300315
 C         -1.9396369232        1.4812481441       -2.9102903559
 C         -1.1698070500        1.7293482845       -1.7852982784
 H         -0.1287951167        1.4467495141       -1.7436352130
 H         -1.4895998302        0.9816939161       -3.7535138336
 H         -3.8731549363        1.6504070513       -3.7996525174
 H         -4.8845627280        2.7616693743       -1.8412703835
 H         -3.4916285107        3.1986609839        0.1764640500
 H         -2.1746158937        2.3895924118        2.5771199205
 H         -3.4881205563        0.5411891522        3.3995479203
 H         -4.0960856585       -1.8339352952        3.1367350986
 H         -2.9480693644       -3.2442130899        1.4874464218
 H         -1.5082655138       -2.4034898868       -1.2123775304
 C         -0.8607457016       -3.9610248524        0.1043824135
 C         -1.9175660833       -4.9270901821       -0.3378077441
 C         -0.5609537931       -4.9587386605       -0.9727535673
 H          0.1010315834       -5.7806677554       -0.7453199065
 H         -0.4573831342       -4.5807935874       -1.9797772051
 H         -2.1882592920       -5.7337388831        0.3268510146
 H         -2.7373583930       -4.5413569042       -0.9250747772
 H         -0.3963722944       -4.1147348741        1.0714755819
