  62
        -98.93736234
 C         -2.2804020101       -0.5258003134       -0.2441062750
 C         -3.5346676585       -1.0104866075       -0.6964752487
 C         -4.7066389116       -0.6284414065        0.1016145315
 C         -4.5286845836        0.0959105810        1.2209935379
 C         -5.6348532939        0.6061951912        2.0973736612
 C         -6.0869887273        2.0063942986        1.6592531216
 C         -6.3642304962        2.1259614708        0.1605455971
 H         -6.7042350831        3.1468315159       -0.0267301387
 H         -5.4277154061        1.9954109577       -0.3868944610
 C         -7.4064514362        1.1335727581       -0.3739275748
 H         -7.9943061397        0.7330861065        0.4526927296
 H         -8.0941217387        1.6690846690       -1.0317924118
 C         -6.8229868775       -0.0235956168       -1.1869814489
 H         -6.1588706975        0.3702120431       -1.9608413058
 H         -7.6471097493       -0.5334007600       -1.6929445903
 C         -6.0545899092       -1.0812256698       -0.3845734091
 H         -6.6683843085       -1.4284269421        0.4488749639
 H         -5.8635403903       -1.9291987496       -1.0487711907
 H         -5.3022642399        2.7204915767        1.9197136272
 H         -6.9859803500        2.2698773694        2.2193509322
 H         -5.2651357200        0.6574165456        3.1227554386
 H         -6.4726378932       -0.0871616378        2.0568255697
 O         -3.3062230963        0.4865961358        1.6602002443
 C         -2.1507563717        0.1977924267        0.9424289050
 O         -1.1118641578        0.6305033972        1.4737245992
 O         -3.6663980557       -1.7333072253       -1.7202879767
 C         -1.0576700701       -0.8735650333       -1.0731075824
 C          0.0644462888       -1.3645317456       -0.1948829998
 C         -0.1066925499       -2.5545435762        0.5085609807
 C          0.8955609407       -3.0446771467        1.3223663465
 C          2.0981142759       -2.3694473109        1.4374023274
 C          2.2757514467       -1.1775831026        0.7459400619
 C          1.2618778097       -0.6816007168       -0.0617906620
 H          1.4204823206        0.2555944746       -0.5684728939
 N          3.4724997043       -0.4534062670        0.8616781108
 S          4.0385918464        0.3885799608       -0.4849677546
 O          3.4194611414        1.6891088610       -0.5305544598
 O          3.8987299604       -0.4257183089       -1.6720709470
 C          5.7615886402        0.5605699086       -0.0560315061
 C          6.1364582843        1.5877914766        0.7894284588
 C          7.4697147890        1.7071293904        1.1481599661
 C          8.4005739127        0.8023097323        0.6594285812
 C          8.0097149722       -0.2227046900       -0.1889286953
 C          6.6776555387       -0.3485247124       -0.5508227472
 H          6.3290381537       -1.1234264578       -1.2144484787
 H          8.7361099397       -0.9225682420       -0.5694377465
 H          9.4376972828        0.8986858335        0.9393236151
 H          7.7775426584        2.5043527533        1.8053569851
 H          5.3789799944        2.2712637991        1.1365974048
 H          4.2074018409       -0.9698357319        1.3246243158
 H          2.8854370574       -2.7543990253        2.0677086297
 H          0.7453744896       -3.9662442607        1.8646368702
 H         -1.0439520865       -3.0862868133        0.4121077810
 H         -1.3856836305       -1.7185968558       -1.7027487360
 C         -0.6216080301        0.2296556188       -2.0257265998
 C         -1.6190021262        1.1675031218       -2.6348891931
 C         -0.6253310583        1.6760683146       -1.6360582749
 H          0.1882547487        2.2983372252       -1.9809670262
 H         -0.9683120056        1.9263076760       -0.6441198854
 H         -1.4984577578        1.4443466147       -3.6713509090
 H         -2.6491035163        1.0699228181       -2.3240250022
 H          0.1922083251       -0.0929608698       -2.6699338832
