  62
        -98.94185127
 C          0.8258098523        1.3448518775        0.4769495995
 C          1.2541446607        0.7109611920       -0.7110789036
 C          2.2069751553       -0.4027423131       -0.5496493820
 C          2.5173415932       -0.8192343108        0.6900478149
 C          3.4957464373       -1.8922107379        1.0848106572
 C          4.8799136090       -1.2854032819        1.3726254820
 C          5.7875914720       -1.1513229007        0.1505506710
 H          6.6769801600       -0.6008619749        0.4657874818
 H          6.1126990344       -2.1447871386       -0.1652910818
 C          5.1642925876       -0.4341184008       -1.0496788136
 H          4.6123329294        0.4427119513       -0.7061046793
 H          5.9773576904       -0.0755459207       -1.6838668725
 C          4.2429697823       -1.3377532987       -1.8829868210
 H          4.3819859131       -2.3729017524       -1.5729104351
 H          4.5403826392       -1.2866322747       -2.9323211575
 C          2.7529276393       -0.9739369146       -1.8293454303
 H          2.5372010567       -0.2115125489       -2.5843869374
 H          2.1580762446       -1.8506511258       -2.1004944576
 H          5.3913626511       -1.9106959791        2.1073941804
 H          4.7281894308       -0.3040679737        1.8297244609
 H          3.5616744626       -2.6611938666        0.3209412846
 H          3.1144877010       -2.3371319520        2.0067450514
 O          1.9883118146       -0.2493172612        1.8103746423
 C          1.1732167585        0.8645809428        1.7382616709
 O          0.8248767375        1.3248739823        2.8455533852
 O          0.8835463804        1.0710239155       -1.8585030651
 C         -0.0528176612        2.5799398497        0.4019277512
 C         -1.3513077623        2.2553980880       -0.2946173085
 C         -1.8548758194        2.9865659772       -1.3620704902
 C         -3.0622253926        2.6356159166       -1.9408598751
 C         -3.7917929884        1.5626592475       -1.4649695092
 C         -3.3025774474        0.8328575109       -0.3860234760
 C         -2.0885095365        1.1785670493        0.1844232601
 H         -1.7163167148        0.6146262537        1.0279762118
 N         -4.0459328751       -0.2300466045        0.1423024175
 S         -3.3559324554       -1.4936665411        0.9687702766
 O         -4.4073809885       -2.4886945636        1.0174897239
 O         -2.8504929403       -1.0558251011        2.2457486542
 C         -2.0328802461       -2.1287251987       -0.0440658938
 C         -0.8218029026       -2.4337134919        0.5407290801
 C          0.1557774623       -3.0522008125       -0.2219768263
 C         -0.0896700137       -3.3411276759       -1.5548536497
 C         -1.3027522448       -3.0062007402       -2.1359343564
 C         -2.2884886699       -2.4027420236       -1.3732552951
 H         -3.2499898416       -2.1548870486       -1.7919712558
 H         -1.4857717418       -3.2228727897       -3.1759859307
 H          0.6661304758       -3.8379697597       -2.1429948678
 H          1.0997190611       -3.3082577973        0.2307174548
 H         -0.6666458862       -2.1849403080        1.5796519436
 H         -4.8657677220       -0.4996945295       -0.3792247190
 H         -4.7356590602        1.2936405392       -1.9133737059
 H         -3.4401063771        3.2067784084       -2.7750355474
 H         -1.3016166359        3.8278197893       -1.7447648542
 H         -0.2901858194        2.8454005257        1.4430340667
 C          0.7123571451        3.7236187090       -0.2315192271
 C          0.3684205737        5.1411548020        0.1102186030
 C          1.6391571750        4.5338299918        0.6220960788
 H          2.5767473900        4.8621603839        0.1990922597
 H          1.7001566091        4.2765769857        1.6700130445
 H          0.4365643529        5.8906568754       -0.6636737401
 H         -0.4334677503        5.3046729288        0.8143045822
 H          1.0320915200        3.5019703314       -1.2430707040
