  62
        -98.94609914
 C         -1.9327460949       -1.2793004487        0.2727509641
 C         -1.7247150014        0.1056110754        0.0722557605
 C         -2.8786762736        0.9723061602        0.3515661171
 C         -4.0283752156        0.4210836093        0.7819653291
 C         -5.2944377530        1.1798960838        1.0530353154
 C         -6.1826983753        1.2436871093       -0.1973565329
 C         -5.4423954680        1.6888117434       -1.4586175877
 H         -4.7060298849        0.9278135719       -1.7273897001
 H         -6.1739943176        1.7268675823       -2.2686955349
 C         -4.7426772724        3.0497219283       -1.3367809333
 H         -4.9507932693        3.6319097623       -2.2369621411
 H         -5.1534962659        3.6030621566       -0.4915304205
 C         -3.2211123349        2.9703715345       -1.1996738117
 H         -2.8147552554        3.9754490886       -1.3410938977
 H         -2.8143202426        2.3390416251       -1.9938526007
 C         -2.6984780025        2.4499190213        0.1452007968
 H         -3.1570421998        3.0124069844        0.9609350663
 H         -1.6187130713        2.6231521852        0.1697714273
 H         -7.0100205540        1.9273381555        0.0015348689
 H         -6.5990799631        0.2499099302       -0.3777666764
 H         -5.8386856964        0.6676066449        1.8482250910
 H         -5.0453099710        2.1855712256        1.3858930215
 O         -4.1834995182       -0.9133321648        0.9792413250
 C         -3.1468178225       -1.7959503302        0.7246848163
 O         -3.4214986025       -2.9929616685        0.9444746209
 O         -0.6325244402        0.5953727605       -0.3156454614
 C         -0.8063221535       -2.2574686397       -0.0073911509
 C          0.4163036570       -1.8818954531        0.7935597885
 C          0.2848662466       -1.6867579924        2.1669272648
 C          1.3759367087       -1.3431874321        2.9404128947
 C          2.6221873660       -1.1783868463        2.3600465797
 C          2.7662422966       -1.3783266850        0.9934189730
 C          1.6697785029       -1.7401375935        0.2206243902
 H          1.8142486160       -1.8840148672       -0.8364978588
 N          4.0241827486       -1.2449548505        0.3757139241
 S          4.2176950646       -0.1914781191       -0.9117080654
 O          3.3493683143       -0.5716703137       -1.9945690380
 O          5.6370441745       -0.2175571620       -1.1921225618
 C          3.7759020563        1.4104424273       -0.2616558520
 C          2.4456691459        1.7384086786       -0.0918336766
 C          2.1334023935        2.9659956365        0.4727509282
 C          3.1414013625        3.8369710684        0.8546255830
 C          4.4724423497        3.4902903903        0.6766259529
 C          4.7941560815        2.2643748320        0.1183994394
 H          5.8139295659        1.9534159062       -0.0421734030
 H          5.2567197064        4.1685866216        0.9720322824
 H          2.8874826917        4.7899565690        1.2916901268
 H          1.0952426725        3.2244725733        0.6090790235
 H          1.6664126033        1.0553724941       -0.3913008474
 H          4.7840029824       -1.1103117481        1.0283601120
 H          3.4754195208       -0.9024450432        2.9611101803
 H          1.2559069928       -1.1945592010        4.0029423743
 H         -0.6912630006       -1.8067470589        2.6179259968
 H         -1.1586641690       -3.2380222564        0.3453299513
 C         -0.5501258682       -2.3424786387       -1.4977593320
 C         -0.0024670552       -3.6014203923       -2.0972627474
 C         -1.4303792986       -3.2155606298       -2.3382078128
 H         -1.7138660610       -2.8697168458       -3.3210908823
 H         -2.2048140005       -3.7725921089       -1.8306052114
 H          0.6992199451       -3.5180995442       -2.9138126725
 H          0.1932770970       -4.4282006253       -1.4310923317
 H         -0.2317411552       -1.3979297339       -1.9255162663
