  62
        -98.94523221
 C         -1.6075439290       -0.2369749450       -0.6062535558
 C         -2.8833299064       -0.7389622447       -0.9641875213
 C         -3.9360574676       -0.6157543439        0.0519128496
 C         -3.6313603498       -0.0882087113        1.2515789021
 C         -4.6137212439        0.1346706657        2.3640464557
 C         -5.2389664992        1.5343295626        2.2812290951
 C         -5.7691116886        1.8926928141        0.8928532094
 H         -4.9291431201        1.9622788001        0.1980611152
 H         -6.2130277663        2.8881447547        0.9616480346
 C         -6.8063086790        0.9076737027        0.3357769816
 H         -7.6324603592        1.4763771934       -0.0961636989
 H         -7.2173831561        0.3047325044        1.1462824744
 C         -6.2780468170       -0.0148999942       -0.7642918368
 H         -5.7832100774        0.5807830697       -1.5353779381
 H         -7.1331081815       -0.5103049097       -1.2318144206
 C         -5.3085598774       -1.1121120932       -0.3069020566
 H         -5.1678791513       -1.8016869565       -1.1444103848
 H         -5.7470262993       -1.6677654203        0.5245749002
 H         -4.4794260149        2.2689760400        2.5584739473
 H         -6.0500057709        1.5932339760        3.0093746044
 H         -4.0847281387        0.0373800208        3.3137561409
 H         -5.3907944412       -0.6256273710        2.3133125327
 O         -2.3883766833        0.3510906333        1.5726322598
 C         -1.3468204973        0.2984800703        0.6556782155
 O         -0.2727809623        0.7608239582        1.0829651531
 O         -3.1292207747       -1.2658813926       -2.0824977153
 C         -0.4821085359       -0.3470372906       -1.6224211392
 C          0.4896882060       -1.3979481428       -1.1438606133
 C          0.0850064244       -2.7311243432       -1.1311445987
 C          0.9354377526       -3.7211009856       -0.6797243951
 C          2.2006223126       -3.4011510306       -0.2156774204
 C          2.6115238606       -2.0750056446       -0.2173829820
 C          1.7618773983       -1.0855743434       -0.6943879594
 H          2.0988195935       -0.0648702915       -0.7004567529
 N          3.8942664417       -1.7077884657        0.2297126491
 S          4.0040371073       -0.5194165830        1.4181569010
 O          5.3309840542       -0.7004980303        1.9724546478
 O          2.9120357513       -0.6162498090        2.3578634318
 C          3.9668639973        1.0204192691        0.5275475035
 C          5.0303499321        1.3052536451       -0.3067686439
 C          5.0251933440        2.4958517499       -1.0150252258
 C          3.9637583409        3.3774678454       -0.8736733658
 C          2.9070135671        3.0773747815       -0.0277168967
 C          2.9029660314        1.8869678386        0.6838141323
 H          2.0812478780        1.6057674061        1.3251258308
 H          2.0777540494        3.7590061870        0.0795038234
 H          3.9570783677        4.3038606845       -1.4265236010
 H          5.8443313259        2.7325171129       -1.6747502769
 H          5.8368627358        0.5949758172       -0.3799806482
 H          4.4794884778       -2.4930795559        0.4802388028
 H          2.8633084494       -4.1727831462        0.1471699795
 H          0.6108157541       -4.7509377891       -0.6804202425
 H         -0.9083013210       -2.9775972659       -1.4802966712
 H         -0.9580169858       -0.7224598932       -2.5395588944
 C          0.1575201893        0.9935961317       -1.9120123584
 C          1.0297154410        1.1526526589       -3.1204096076
 C         -0.3195568746        1.8030531601       -3.0786522923
 H         -0.3734336237        2.8759575770       -2.9723190308
 H         -1.1075805882        1.3853525885       -3.6882152930
 H          1.9065629122        1.7772200858       -3.0412977891
 H          1.1572342946        0.2912067557       -3.7581431733
 H          0.4347747272        1.5335962651       -1.0151757435
