  62
        -98.93556860
 C         -1.9364922594       -1.5388669098        0.0386551995
 C         -2.1484879798       -0.5934956494       -0.9928160201
 C         -3.4804564399        0.0445107604       -1.0319787296
 C         -4.3934381397       -0.2723747502       -0.0991521896
 C         -5.7648442798        0.3177107494        0.0779071009
 C         -5.7259086599        1.4836100889        1.0805880414
 C         -5.3940316303        2.8463342593        0.4732229120
 H         -6.2435302804        3.1911308894       -0.1201634477
 H         -5.2665959603        3.5482677889        1.3006641023
 C         -4.1387035504        2.8867639699       -0.4024209582
 H         -3.8057934206        3.9250832000       -0.4613048377
 H         -3.3381459002        2.3190181699        0.0759833115
 C         -4.3786232605        2.3609659406       -1.8256137684
 H         -4.0027860908        3.0896436110       -2.5469947281
 H         -5.4520100105        2.2823421504       -1.9976796583
 C         -3.7033425203        1.0205018609       -2.1553105891
 H         -4.2733162903        0.5195107311       -2.9447323792
 H         -2.7044238804        1.2078967912       -2.5615784691
 H         -4.9930200898        1.2365536487        1.8532763712
 H         -6.6999637799        1.5598762185        1.5680284916
 H         -6.3946269596       -0.4736486909        0.4896208606
 H         -6.1762307700        0.6330038098       -0.8763765789
 O         -4.1453069394       -1.1776477807        0.8864788799
 C         -2.9310176893       -1.8289360605        0.9776103595
 O         -2.8551102990       -2.6398403409        1.9222513591
 O         -1.2802380600       -0.2686138788       -1.8443606400
 C         -0.6361195093       -2.3071974896        0.2165561589
 C          0.3729834807       -1.5120653498        1.0040230992
 C          1.0430336309       -2.0763800202        2.0828329188
 C          1.9830983409       -1.3459390203        2.7896212790
 C          2.2747658606       -0.0411452901        2.4347257296
 C          1.6105672703        0.5316480103        1.3574190899
 C          0.6692950904       -0.2025725696        0.6505871497
 H          0.1622971302        0.2455513307       -0.1911154100
 N          1.9029241900        1.8583183405        0.9793771505
 S          3.4972211699        2.1942492310        0.5849139305
 O          4.2920797600        2.1812014506        1.7869643103
 O          3.4603838595        3.4412672914       -0.1437020490
 C          3.9857152900        0.8571286816       -0.4877141802
 C          3.6713913098        0.9447580122       -1.8294172501
 C          3.9804217299       -0.1189841473       -2.6613500107
 C          4.5817014002       -1.2527502175       -2.1364406513
 C          4.8884510404       -1.3260884480       -0.7866343714
 C          4.5896408803       -0.2621385485        0.0494272692
 H          4.8189178404       -0.2774761289        1.1019772991
 H          5.3550347206       -2.2094660781       -0.3818703919
 H          4.8103108603       -2.0844126371       -2.7835146517
 H          3.7423992897       -0.0635254969       -3.7113369006
 H          3.2029146896        1.8432043123       -2.1985557297
 H          1.2953908598        2.1977073408        0.2466343608
 H          3.0060645105        0.5418724298        2.9709762098
 H          2.4924507111       -1.7960414206        3.6280344987
 H          0.8128443412       -3.0906465303        2.3744917184
 H         -0.9075718990       -3.1860163600        0.8221327886
 C         -0.0721809093       -2.8279266489       -1.1000057514
 C          1.1412170204       -2.2641733383       -1.7691122013
 C          1.2098859708       -3.6073737386       -1.1117810919
 H          1.2727912009       -4.4886788483       -1.7314770324
 H          1.7541226110       -3.6778580790       -0.1822101420
 H          1.1341241103       -2.2082235378       -2.8465726913
 H          1.6515230203       -1.4392196985       -1.2979754410
 H         -0.8612572794       -3.1796033988       -1.7574526814
