  62
        -98.93915240
 C          2.3362740779        1.2689807109       -0.0146956020
 C          3.1390993250        0.5695634435        0.9128330820
 C          3.9210404244       -0.5709048672        0.3960753556
 C          3.8115432749       -0.8908877502       -0.9070450592
 C          4.4690746910       -2.0268235590       -1.6449098175
 C          3.8081545599       -3.3836002550       -1.3526139373
 C          3.4878577210       -3.6391686329        0.1179061131
 H          2.8285636745       -2.8488201682        0.4826909074
 H          2.9284727921       -4.5767874822        0.1774533583
 C          4.7008679449       -3.7571704128        1.0380075922
 H          4.3294162754       -4.0280018440        2.0296775339
 H          5.3362847131       -4.5734252819        0.6876826901
 C          5.5593403112       -2.4983357011        1.1795955014
 H          6.2024503633       -2.3626575978        0.3143885060
 H          6.2208302540       -2.6514216548        2.0372200521
 C          4.7753783099       -1.2198944311        1.4588037746
 H          5.4792129721       -0.4440244859        1.7834270599
 H          4.1148464631       -1.3851929250        2.3177526881
 H          4.4606146279       -4.1737128608       -1.7279897544
 H          2.8683879653       -3.4285972223       -1.9092706927
 H          4.3617050427       -1.8115072441       -2.7102825503
 H          5.5304959068       -2.0556226489       -1.4175891804
 O          3.0026998676       -0.2006901555       -1.7620039143
 C          2.2503981391        0.8848487598       -1.3523489501
 O          1.5669280000        1.4098738686       -2.2513296914
 O          3.1983793369        0.8746908546        2.1359065374
 C          1.5151700134        2.4535487220        0.4618673661
 C          0.0489986746        2.1840351631        0.2285684588
 C         -0.8046049268        3.0689939048       -0.4156586183
 C         -2.1341952733        2.7386628554       -0.6157795905
 C         -2.6425969367        1.5317684500       -0.1730146131
 C         -1.7991240115        0.6415745101        0.4793522262
 C         -0.4692816259        0.9755461306        0.6789488239
 H          0.1888290662        0.2779603802        1.1835796945
 N         -2.3086066527       -0.5828387830        0.9495540703
 S         -3.1618823436       -1.5446674295       -0.1321036521
 O         -3.0348294281       -2.8908730979        0.3840354611
 O         -2.7264025574       -1.3350583261       -1.4935491908
 C         -4.8478880197       -1.0067602570        0.0646216521
 C         -5.5797979347       -0.6207122488       -1.0410871108
 C         -6.8940959595       -0.2155112464       -0.8664547115
 C         -7.4498820663       -0.2042183715        0.4036407135
 C         -6.7017283239       -0.5969192180        1.5036276943
 C         -5.3880741163       -1.0046829426        1.3359045821
 H         -4.7740040341       -1.3199176249        2.1627701917
 H         -7.1370677473       -0.5863323782        2.4898515815
 H         -8.4721780254        0.1126237964        0.5369020288
 H         -7.4768106611        0.0897854386       -1.7206485255
 H         -5.1024305032       -0.6389960798       -2.0080207847
 H         -1.6255501958       -1.1379837747        1.4451108559
 H         -3.6752302768        1.2689431514       -0.3345090405
 H         -2.7841669508        3.4323410402       -1.1268689529
 H         -0.4270290656        4.0123274108       -0.7738070180
 H          1.6850016205        2.5087486105        1.5475682177
 C          2.0121772854        3.7337931193       -0.1746783010
 C          1.8318794160        5.0446254670        0.5291716747
 C          3.1942056120        4.4290306527        0.4292348336
 H          3.9197640841        4.8797393402       -0.2310868413
 H          3.6261401140        3.9903280425        1.3169614466
 H          1.6237070792        5.9230640275       -0.0626218054
 H          1.3396526201        5.0317522603        1.4896868913
 H          1.9415217032        3.7152936067       -1.2564959710
