  62
        -98.93271934
 C         -2.5938994723       -0.3104082033        0.1555662673
 C         -2.0583528532        0.5465827697       -0.8348570640
 C         -1.7144739636        1.9187341923       -0.4071255435
 C         -1.9953695821        2.3105487083        0.8470124548
 C         -1.7229952325        3.6323991065        1.5209703729
 C         -1.9418260219        4.9071656733        0.6931366089
 C         -0.6402986386        5.6017163903        0.2878377518
 H         -0.8492766102        6.6589737424        0.1101802748
 H          0.0582910244        5.5421810586        1.1248716729
 C          0.0316417256        5.0475902584       -0.9674229024
 H         -0.5509868147        5.3329034713       -1.8459927296
 H          1.0110967813        5.5229786762       -1.0572152033
 C          0.2198440040        3.5295551301       -0.9916291508
 H          1.0241636902        3.2940974447       -1.6928454492
 H          0.5421514628        3.1582729515       -0.0181688362
 C         -1.0314002984        2.7633268706       -1.4470182273
 H         -1.7567727288        3.4516100103       -1.8905432925
 H         -0.7546145136        2.0590512284       -2.2379776290
 H         -2.5154324772        5.6038846306        1.3067176244
 H         -2.5425229403        4.6803020555       -0.1857859077
 H         -2.3794543227        3.6408377989        2.3946080658
 H         -0.6987669381        3.6078973356        1.9036145481
 O         -2.5899970778        1.4748316815        1.7469646378
 C         -2.8457257521        0.1519965114        1.4485561926
 O         -3.3182489358       -0.5039197977        2.4007721586
 H         -0.2764898261       -1.1974171360       -0.7855607263
 C         -0.3302486604       -2.0812986564       -0.1698262007
 C         -1.5553605546       -2.5525596388        0.2771300443
 C         -1.5820061461       -3.7085926647        1.0487089226
 C         -0.4075784898       -4.3607633773        1.3799085149
 C          0.8156729337       -3.8570585058        0.9760090177
 C          0.8517885977       -2.7055324771        0.1976293754
 N          2.0685874920       -2.1517531777       -0.2300971487
 S          2.1780151646       -0.4623729832       -0.2963791044
 O          1.4683647467        0.1262872556        0.8173107733
 O          1.8058429415       -0.0244995313       -1.6163779533
 C          3.9383999064       -0.2576775263       -0.0829887300
 C          4.4424032315        0.0024743507        1.1771905787
 C          5.8139706035        0.1201890670        1.3402273855
 C          6.6540743979       -0.0272017623        0.2467485409
 C          6.1337349187       -0.2871313775       -1.0124954485
 C          4.7633358427       -0.4043967920       -1.1823754534
 H          4.3112613398       -0.5963665671       -2.1414835391
 H          6.7894055009       -0.3981600167       -1.8609503189
 H          7.7208180897        0.0639574332        0.3765257638
 H          6.2204690894        0.3260808471        2.3172824623
 H          3.7493511741        0.1161801837        1.9955587927
 H          2.8722140256       -2.5616206827        0.2264143748
 H          1.7341928730       -4.3470407710        1.2611666202
 H         -0.4429349439       -5.2568130548        1.9806711253
 H         -2.5293022746       -4.0822958011        1.4078093129
 C         -2.8273107553       -1.7991808610       -0.0439889944
 H         -3.5809259675       -2.0894840812        0.7020340607
 C         -3.3407561985       -2.1860844110       -1.4163238857
 C         -4.1422815966       -3.4427278159       -1.5687647879
 C         -4.8090816336       -2.1072018709       -1.7013416780
 H         -5.1239935687       -1.7763031429       -2.6792896996
 H         -5.4542313006       -1.7769000175       -0.8999746356
 H         -3.9991576569       -4.0366191890       -2.4582104740
 H         -4.3450540645       -4.0211976654       -0.6804235542
 H         -2.6635459327       -1.9175962120       -2.2162852315
 O         -1.8552796515        0.2068913372       -2.0318266542
