  62
        -98.94478138
 C          2.1647981877        1.4000203060        0.1795298968
 C          2.0244579441        0.4857544176       -0.8927053724
 C          3.0267876729       -0.5876816056       -0.9495587910
 C          3.9785940850       -0.6714206673       -0.0027086365
 C          5.0890437285       -1.6853354658        0.0541904464
 C          4.6847930524       -3.0293127859        0.6752273865
 C          3.7911994632       -3.9085161992       -0.2002776725
 H          4.2428295004       -4.0150147400       -1.1871051513
 H          3.7715893409       -4.8998187569        0.2567650485
 C          2.3487691734       -3.4029169087       -0.3425730975
 H          2.1401205935       -2.6763215229        0.4464845317
 H          1.6604230916       -4.2403337017       -0.2055009946
 C          2.0305658806       -2.7699096511       -1.6974062389
 H          0.9974286396       -2.4133713119       -1.6824366327
 H          2.1123095808       -3.5248511774       -2.4826901388
 C          2.9295518227       -1.5835813987       -2.0666633477
 H          3.9224504759       -1.9369687613       -2.3446888143
 H          2.4873804901       -1.0746617871       -2.9269287064
 H          5.6049562457       -3.5795878565        0.8846476424
 H          4.1878409862       -2.8385902025        1.6290802873
 H          5.4843074118       -1.8514669821       -0.9485815016
 H          5.8773943005       -1.2455352199        0.6689054634
 O          4.0546531026        0.2040470633        1.0341956116
 C          3.1594387409        1.2525274936        1.1507794082
 O          3.3509964438        1.9796758761        2.1455794667
 O          1.1281377685        0.5566979615       -1.7743119373
 C          1.2441178160        2.6011529927        0.3331377252
 C         -0.1481718323        2.1384759261        0.6861452060
 C         -0.4737461884        1.8964355228        2.0178826440
 C         -1.7371451420        1.4564311931        2.3671325577
 C         -2.6976062693        1.2303522451        1.3958798678
 C         -2.3708902368        1.4394735249        0.0626111211
 C         -1.1087997992        1.9047598044       -0.2845107181
 H         -0.8678920067        2.0543134188       -1.3245342200
 N         -3.3162668375        1.1785273787       -0.9402401307
 S         -4.3683559374       -0.1031454823       -0.7621872821
 O         -4.6969847455       -0.5135260631       -2.1097625950
 O         -5.4873402199        0.3028769809        0.0534212627
 C         -3.4768522137       -1.4031639672        0.0794539869
 C         -4.1200722147       -2.0923532803        1.0885160326
 C         -3.4517843959       -3.1170203785        1.7387186332
 C         -2.1524538913       -3.4311084007        1.3729860994
 C         -1.5199626747       -2.7295195099        0.3585228741
 C         -2.1849619702       -1.7080558283       -0.3009142910
 H         -1.7006536739       -1.1493479439       -1.0869306423
 H         -0.5061198224       -2.9679071051        0.0797552414
 H         -1.6264385593       -4.2242385154        1.8804496820
 H         -3.9432479891       -3.6626462189        2.5280295299
 H         -5.1264139601       -1.8055857306        1.3478957632
 H         -2.9479551742        1.2352178728       -1.8781698485
 H         -3.6911610147        0.9001595922        1.6533901365
 H         -1.9794291536        1.2870582790        3.4051453215
 H          0.2801750021        2.0570374728        2.7759560018
 H          1.6358640163        3.1663410887        1.1890637110
 C          1.2879298727        3.4909139329       -0.8931763784
 C          0.7368342835        4.8814147856       -0.8075886031
 C          2.2162503713        4.6660426941       -0.9118221043
 H          2.7108210115        4.9170401190       -1.8383496676
 H          2.8220909963        4.8391747496       -0.0342820177
 H          0.2138414169        5.2843172405       -1.6614740467
 H          0.3363862607        5.1997421598        0.1431094363
 H          1.1608077294        2.9525957607       -1.8239399024
