  62
        -98.93431743
 C          2.0830925045        1.2130560623       -0.0962793682
 C          2.3931903526       -0.0041592863       -0.7485105467
 C          3.8069786778       -0.4315686359       -0.6970862304
 C          4.7050184507        0.3327748329       -0.0540697807
 C          6.1705376746        0.0613701369        0.1450724633
 C          6.4155962898       -0.6455718549        1.4886723700
 C          6.3053610562       -2.1691176180        1.4437980951
 H          7.1636069031       -2.5751539840        0.9041681600
 H          6.3656814249       -2.5299046338        2.4731802852
 C          5.0249707363       -2.7148146467        0.8059661038
 H          4.1647473757       -2.1395700477        1.1536524897
 H          4.8880750205       -3.7403222846        1.1547203506
 C          5.0682302774       -2.7146752514       -0.7294660214
 H          4.7986374464       -3.7065663131       -1.0984986913
 H          6.0915140310       -2.5315505936       -1.0570810468
 C          4.1204429167       -1.7176250865       -1.4121044798
 H          4.5117126428       -1.4784164185       -2.4069807497
 H          3.1457275619       -2.1916194835       -1.5670451858
 H          7.4163659904       -0.3892797844        1.8422676031
 H          5.7009438160       -0.2455952043        2.2125727436
 H          6.5727035624       -0.5152224215       -0.6825800293
 H          6.6659322161        1.0343709492        0.1696467946
 O          4.3603564792        1.4894206859        0.5764637163
 C          3.0564830030        1.9458311055        0.5887012831
 O          2.8892391622        2.9995559076        1.2342873379
 O          1.5479661229       -0.7145756862       -1.3516594282
 C          0.6699793315        1.7712793627       -0.0481675855
 C         -0.3049423934        0.6811259859        0.3200905048
 C         -0.3009967508        0.1886971572        1.6218179200
 C         -1.1658255834       -0.8210706434        1.9996837784
 C         -2.0537785735       -1.3616704142        1.0866569122
 C         -2.0638960649       -0.8784823880       -0.2148182541
 C         -1.2034211362        0.1455977611       -0.5887154034
 H         -1.2059768416        0.4949341651       -1.6092693154
 N         -2.9605887432       -1.4266513182       -1.1474433614
 S         -4.5568734496       -1.6127575818       -0.6899148058
 O         -4.6974936368       -2.7871286639        0.1342441128
 O         -5.3096932599       -1.6121389366       -1.9244228091
 C         -4.9236387694       -0.1524081790        0.2674549456
 C         -5.1665747377       -0.2542212532        1.6216915581
 C         -5.3973680962        0.9022432116        2.3498276035
 C         -5.3770855174        2.1340046968        1.7148326802
 C         -5.1348897706        2.2197215183        0.3520718106
 C         -4.9035487958        1.0671841276       -0.3803500031
 H         -4.7203323154        1.0961278547       -1.4424868640
 H         -5.1224496770        3.1792497951       -0.1396077865
 H         -5.5521281197        3.0334445923        2.2838707493
 H         -5.5884519653        0.8387157980        3.4089243167
 H         -5.1739719205       -1.2312530343        2.0763380244
 H         -2.8798667892       -1.0352833090       -2.0738454871
 H         -2.7247007251       -2.1608701762        1.3570474054
 H         -1.1465848993       -1.1951925230        3.0121108065
 H          0.4003111149        0.6034587468        2.3333868201
 H          0.6860237589        2.4999714689        0.7783224809
 C          0.2591815080        2.5440361458       -1.2930595217
 C          1.2585446053        3.3722637925       -2.0426255355
 C          0.6773136915        2.1451512961       -2.6751731442
 H         -0.0313239677        2.2738059294       -3.4809018120
 H          1.3026133886        1.2729096278       -2.7813121453
 H          0.9521280311        4.3390283674       -2.4126479781
 H          2.2850463653        3.3389189522       -1.7072562070
 H         -0.7349581857        2.9686381139       -1.1895069338
