  62
        -98.94078348
 C          1.0283532969        1.4882065191       -0.0552974286
 C          1.5930202866        0.6478785084        0.9352322859
 C          2.4748042113       -0.4397516021        0.4772166528
 C          2.7018571631       -0.5875882184       -0.8412238023
 C          3.4786715442       -1.6370520050       -1.6087153680
 C          4.4281181336       -2.5896125088       -0.8870363406
 C          5.6743497372       -1.9245044881       -0.3031251030
 H          6.2210613440       -2.6712887043        0.2765782705
 H          6.3166856646       -1.6080593918       -1.1287738344
 C          5.4159746545       -0.7026819042        0.5745733081
 H          6.3842837131       -0.3200778561        0.9083080743
 H          4.9476822571        0.0833274199       -0.0215055860
 C          4.5648109396       -0.9595710135        1.8161048033
 H          4.5933302259       -0.0530238073        2.4264108808
 H          5.0040659422       -1.7701938745        2.4005518142
 C          3.0861555846       -1.2925746825        1.5519871822
 H          2.5279773160       -1.0763896071        2.4674195402
 H          2.9504375080       -2.3483125943        1.3280010689
 H          4.7597422129       -3.3197925377       -1.6303425725
 H          3.8933583870       -3.1431190404       -0.1207352753
 H          2.7206356385       -2.2296756398       -2.1347054011
 H          4.0325572399       -1.0944527403       -2.3818648420
 O          2.1559854836        0.2593147140       -1.7600947776
 C          1.3038532207        1.2969377599       -1.4097145627
 O          0.8912249118        1.9505170259       -2.3870807548
 O          1.3567387632        0.7903151840        2.1655254316
 C          0.0700445513        2.5593451850        0.4261170505
 C         -1.3700290947        2.0951154052        0.3831386849
 C         -2.3019098489        2.6153410120        1.2762925241
 C         -3.6188841934        2.1961552832        1.2465992688
 C         -4.0292006515        1.2257712652        0.3489091689
 C         -3.1065528581        0.6960051523       -0.5435543348
 C         -1.7944382929        1.1483164132       -0.5352592891
 H         -1.1056367555        0.7391939965       -1.2572211082
 N         -3.4661785176       -0.3196882342       -1.4497566124
 S         -2.5136570368       -1.6993145220       -1.4713296839
 O         -1.2594436214       -1.4455245920       -2.1324234342
 O         -3.3568016469       -2.7099871983       -2.0738711194
 C         -2.2543990087       -2.0621022821        0.2544474137
 C         -1.0979532430       -1.6321576475        0.8711031266
 C         -0.9567084295       -1.8147617922        2.2374667670
 C         -1.9674459777       -2.4313651366        2.9580528917
 C         -3.1181891892       -2.8732532050        2.3217006522
 C         -3.2704912459       -2.6791322514        0.9587350943
 H         -4.1483372877       -3.0063445261        0.4253945764
 H         -3.8987305416       -3.3584781014        2.8852058620
 H         -1.8544052998       -2.5675785938        4.0219353249
 H         -0.0655435555       -1.4496665785        2.7234763303
 H         -0.3264170042       -1.1584398999        0.2841106510
 H         -4.4432249765       -0.5755279581       -1.4128005007
 H         -5.0513335514        0.8797649411        0.3382936699
 H         -4.3307783017        2.6128198233        1.9421486569
 H         -1.9857221010        3.3485498916        2.0019481086
 H          0.3274131688        2.7271577200        1.4818205775
 C          0.2081506306        3.8762741867       -0.3148511006
 C         -0.0269793226        5.1706889745        0.4018175945
 C          1.3621641269        4.7791977987       -0.0013773733
 H          1.8390730279        5.3031864819       -0.8157849138
 H          2.0467705160        4.4609944060        0.7715435210
 H         -0.5117533053        5.9719884940       -0.1341135780
 H         -0.2707488486        5.1318921966        1.4522955339
 H         -0.0980222460        3.8109114170       -1.3514619242
