  62
        -98.94301394
 C         -2.3324427952       -0.8982646439        0.4265660883
 C         -2.5318928547        0.1703033457       -0.4809472883
 C         -3.5383598970        1.1658724582       -0.0867633248
 C         -4.1733886509        1.0559211999        1.0933490364
 C         -5.1977801888        2.0097026426        1.6449558046
 C         -6.6239910824        1.7572644138        1.1370014705
 C         -6.8751199383        2.1498816672       -0.3194351690
 H         -7.9552922823        2.1246775477       -0.4763719412
 H         -6.5471409007        3.1774331416       -0.4796003304
 C         -6.2059024077        1.2275385953       -1.3479622393
 H         -5.9216299368        0.2893422332       -0.8658303038
 H         -6.9220966103        0.9783468736       -2.1342303137
 C         -4.9753593614        1.8256742934       -2.0298782306
 H         -4.5609458908        1.0754427706       -2.7082933357
 H         -5.2712422699        2.6914915721       -2.6265808276
 C         -3.8642151393        2.2558967680       -1.0633180792
 H         -4.1549218397        3.1645693223       -0.5367321046
 H         -2.9633467079        2.4621309854       -1.6465623218
 H         -6.8623024183        0.7001767254        1.2755265352
 H         -7.3015386036        2.3361357971        1.7688222658
 H         -4.9050205345        3.0349273183        1.4167106129
 H         -5.1907145827        1.8788247934        2.7291649768
 O         -3.9284944551        0.0357600726        1.9567257267
 C         -3.0334930016       -0.9688360144        1.6362633323
 O         -2.9454432899       -1.8639445395        2.5002103074
 O         -1.9132139057        0.3168060796       -1.5703341569
 C         -1.3757323638       -2.0529935168        0.1699112582
 C          0.0571684586       -1.6810108790        0.4702509848
 C          0.7833713953       -2.3705234157        1.4341531852
 C          2.1037324046       -2.0435439459        1.6886336596
 C          2.7245558859       -1.0215308796        0.9930418122
 C          2.0071166444       -0.3249765415        0.0293977381
 C          0.6857932276       -0.6611663746       -0.2296045689
 H          0.1313640048       -0.1162183361       -0.9795411111
 N          2.6162609370        0.7340643954       -0.6654334825
 S          4.1182166005        0.4736851132       -1.3656767317
 O          4.2181380513        1.4513245720       -2.4272376391
 O          4.2945955239       -0.9085418411       -1.7477104402
 C          5.2710932421        0.9009922225       -0.0772638259
 C          5.1490200561        2.1392982863        0.5221339385
 C          6.0468454753        2.4922826763        1.5168401486
 C          7.0479545339        1.6079469950        1.8906519904
 C          7.1592528839        0.3698199693        1.2768462357
 C          6.2634446108        0.0100483726        0.2818533558
 H          6.3070630669       -0.9439978381       -0.2188958537
 H          7.9380546969       -0.3161636698        1.5690352682
 H          7.7454218570        1.8859554318        2.6649958830
 H          5.9629298933        3.4538528146        1.9972704486
 H          4.3588324695        2.7976726451        0.2014378212
 H          1.9937847034        1.1968193316       -1.3124962550
 H          3.7522558185       -0.7618416282        1.1883226813
 H          2.6556392039       -2.5884498885        2.4392263078
 H          0.3022204632       -3.1611450946        1.9914055774
 H         -1.6697185052       -2.8395405619        0.8777165339
 C         -1.4945250339       -2.6105826047       -1.2364357401
 C         -1.0625515790       -4.0201732095       -1.4994026578
 C         -2.5186144161       -3.6650299609       -1.5233064739
 H         -3.0312933895       -3.6408704731       -2.4732418366
 H         -3.1374868841       -3.9962845008       -0.7017823008
 H         -0.5700281114       -4.2413835167       -2.4339618904
 H         -0.6954848868       -4.5955528423       -0.6630141322
 H         -1.3094660015       -1.8752785386       -2.0085390927
