  62
        -98.94042302
 C          2.4453584151        1.0547241875        0.0038927853
 C          2.4655658956       -0.3386951400        0.2524834717
 C          3.7768644747       -0.9020980533        0.5995303738
 C          4.8507654461       -0.0960590070        0.6875745417
 C          6.2465057680       -0.5167369966        1.0610545135
 C          7.0680944631       -1.0699242504       -0.1113139654
 C          6.6569664578       -2.4613878251       -0.5939020582
 H          7.4439450094       -2.8139287088       -1.2634683311
 H          6.6219654282       -3.1440798440        0.2555720375
 C          5.3178802815       -2.5010529628       -1.3434740491
 H          5.0449129947       -1.4908649965       -1.6574555071
 H          5.4255397220       -3.0993449018       -2.2510470652
 C          4.1603884636       -3.0983267204       -0.5429574586
 H          4.3621307088       -4.1518464436       -0.3365643245
 H          3.2553936301       -3.0427013948       -1.1538431319
 C          3.8771660389       -2.3858996160        0.7861546054
 H          4.6505077919       -2.6277075728        1.5150140960
 H          2.9140882872       -2.7370599092        1.1652511080
 H          8.1098839563       -1.1149385004        0.2141191005
 H          7.0094246019       -0.3638596866       -0.9427264162
 H          6.7477802647        0.3758415053        1.4414101975
 H          6.2036646048       -1.2586070070        1.8588800292
 O          4.7826199973        1.2433237073        0.4619447505
 C          3.5894471625        1.8464630739        0.0989612195
 O          3.6730600973        3.0760648727       -0.0968170917
 O          1.4449209998       -1.0740442465        0.1957142271
 C          1.1462726930        1.7334375978       -0.3878527085
 C          0.0803472313        1.4738426648        0.6491284156
 C          0.3963349562        1.6245187766        1.9970384365
 C         -0.5509699341        1.3903876939        2.9742367297
 C         -1.8342986477        1.0048228849        2.6294146780
 C         -2.1674742462        0.8737687670        1.2866110883
 C         -1.2138428264        1.1143860737        0.3067505065
 H         -1.4968224525        0.9986265253       -0.7256454780
 N         -3.4821141935        0.5422244394        0.9159820258
 S         -3.7791331890       -0.3572589896       -0.4799341547
 O         -3.0190666781       -1.5867726419       -0.4707432838
 O         -3.6079952120        0.4949113482       -1.6295177420
 C         -5.5137230666       -0.7026958468       -0.2469731923
 C         -6.4265554259        0.3031808578       -0.5032124322
 C         -7.7738021388        0.0537482768       -0.2965400109
 C         -8.1842784676       -1.1902923456        0.1596613286
 C         -7.2572287348       -2.1907805671        0.4093167555
 C         -5.9077473812       -1.9471156783        0.2064101805
 H         -5.1516438140       -2.6960401758        0.3801755995
 H         -7.5793408254       -3.1579692095        0.7602241652
 H         -9.2335867600       -1.3822261486        0.3189670339
 H         -8.4979680741        0.8280484395       -0.4921042899
 H         -6.0618053824        1.2501450139       -0.8651623154
 H         -4.0234905099        0.1867648571        1.6924886523
 H         -2.5719909765        0.8113014800        3.3933529617
 H         -0.2866666844        1.5008374037        4.0153529946
 H          1.4025823268        1.9163004523        2.2674545035
 H          1.3568179940        2.8135898289       -0.3991758490
 C          0.7392911276        1.3045809155       -1.7826804388
 C         -0.0304210721        2.2373142855       -2.6669374944
 C          1.4072471692        1.9376012722       -2.9647671801
 H          1.6416158429        1.3185959493       -3.8178375302
 H          2.1419646373        2.7041727010       -2.7642435373
 H         -0.7926997060        1.8233432407       -3.3102873359
 H         -0.2724649144        3.2123830579       -2.2715757418
 H          0.5145447110        0.2445824606       -1.8431403632
