  62
        -98.94029516
 C         -0.6637435299       -1.3489017300        0.7422408990
 C         -1.2930142800       -1.1570748598       -0.5108367010
 C         -2.2368440100       -0.0323118598       -0.5875419107
 C         -2.4280680300        0.7527472100        0.4873781894
 C         -3.3025093900        1.9774523500        0.5675714197
 C         -4.8163866800        1.7504920500        0.3933769996
 C         -5.3226166600        1.9374552003       -1.0420821603
 H         -6.2825130400        2.4570133203       -1.0118797902
 H         -4.6303435600        2.5893064104       -1.5768274502
 C         -5.5355893500        0.6515877705       -1.8463316606
 H         -6.4697532300        0.1825949104       -1.5289854207
 H         -5.6469596100        0.9289806407       -2.8967958405
 C         -4.4320771400       -0.3999111096       -1.7271259308
 H         -4.5093315600       -0.9062380098       -0.7620187509
 H         -4.6028773500       -1.1619284394       -2.4901146409
 C         -2.9991806900        0.1504850805       -1.8665808707
 H         -3.0115835800        1.2002576705       -2.1581462805
 H         -2.4544175600       -0.4052616094       -2.6329417708
 H         -5.0803898300        0.7609059199        0.7649557394
 H         -5.3200103900        2.4805888799        1.0288821098
 H         -3.1208943100        2.3998085898        1.5580107898
 H         -2.9574847700        2.7030828301       -0.1736058602
 O         -1.7842406800        0.5449705198        1.6693387494
 C         -0.8864455099       -0.4982512902        1.8234250092
 O         -0.3563101199       -0.5585855404        2.9512798491
 O         -1.0799216200       -1.8856900496       -1.5148864611
 C          0.3486398001       -2.4651737100        0.9198366088
 C          1.4990978301       -2.2705585198       -0.0389854312
 C          2.1180079201       -3.3157073497       -0.7128185614
 C          3.1663605501       -3.0637863795       -1.5810093314
 C          3.6083586200       -1.7729724795       -1.8059423711
 C          3.0017059000       -0.7212079996       -1.1288737109
 C          1.9742335401       -0.9807453298       -0.2379108110
 H          1.5105536400       -0.1598475999        0.2899657192
 N          3.4243798600        0.6049641304       -1.3102722107
 S          2.2836849200        1.8300001104       -1.3425580504
 O          1.0428986800        1.4030782405       -1.9451346605
 O          2.9622898800        2.9265433506       -2.0038974902
 C          2.0291756700        2.2668537801        0.3630620597
 C          3.1238579800        2.4142250999        1.1912567597
 C          2.9160364800        2.7834084097        2.5104399198
 C          1.6277178400        3.0026480396        2.9742753998
 C          0.5400850800        2.8575458797        2.1278212898
 C          0.7414915800        2.4870726900        0.8083699997
 H         -0.0765971000        2.3425144001        0.1187114097
 H         -0.4629549500        3.0143453196        2.4907606599
 H          1.4664164400        3.2835425794        4.0029881899
 H          3.7576056600        2.8956384996        3.1748720598
 H          4.1092982000        2.2325526200        0.7959388097
 H          4.1321463500        0.7347501806       -2.0189513206
 H          4.4112456200       -1.5767596693       -2.5001582811
 H          3.6366766701       -3.8839507994       -2.1020110215
 H          1.7743875601       -4.3264633297       -0.5654200016
 H          0.7386442801       -2.3617420902        1.9435818688
 C         -0.3229353899       -3.8166145900        0.7869019185
 C          0.1858850101       -4.9962746502        1.5582558883
 C         -1.1083173099       -4.3489107303        1.9466195884
 H         -2.0307474299       -4.8735376002        1.7477082783
 H         -1.1325350899       -3.7480727204        2.8443197885
 H          0.1495265301       -5.9703432901        1.0939831381
 H          1.0392957901       -4.8437548803        2.2014156183
 H         -0.7214609199       -3.9848988198       -0.2070219515
