  62
        -98.94652641
 C          0.7374544333        1.7407029744        0.6707045328
 C          1.5138896752        1.8032625015       -0.5114067047
 C          2.7205584549        0.9680596199       -0.5230227051
 C          3.0189115076        0.2053117334        0.5443057686
 C          4.2373521284       -0.6654225820        0.6924358897
 C          4.1027413010       -2.0516935891        0.0486442317
 C          4.1257865757       -2.0719704761       -1.4796796848
 H          5.0005492487       -1.5296649180       -1.8397209594
 H          4.2419159997       -3.1136956429       -1.7844994536
 C          2.8585885212       -1.5036817860       -2.1339536330
 H          2.5257807529       -2.1731288001       -2.9300098567
 H          2.0537665116       -1.4599361368       -1.3958766902
 C          3.0385303100       -0.1181654650       -2.7544631319
 H          2.0723351619        0.2133753731       -3.1438614887
 H          3.7371890467       -0.1786743889       -3.5921287919
 C          3.5441790782        0.9487977492       -1.7749505932
 H          4.5946476617        0.7785730916       -1.5401446180
 H          3.4451437433        1.9266353639       -2.2526329299
 H          4.9334169805       -2.6607059095        0.4122783766
 H          3.1727323213       -2.5021517114        0.3973435016
 H          5.1040613655       -0.1499271732        0.2771683861
 H          4.3943054647       -0.7986203000        1.7648967428
 O          2.2359659193        0.1616610768        1.6559863250
 C          1.0719930530        0.9093163800        1.7388770829
 O          0.4337337477        0.7523454802        2.7998508828
 H         -1.2705452183        0.0405259172        0.3085742026
 C         -1.7402519117        0.7067024155       -0.4014802093
 C         -1.4903671154        2.0713001306       -0.3185402260
 C         -2.1027056751        2.9161212623       -1.2337946122
 C         -2.9297612650        2.3979492874       -2.2158410458
 C         -3.1804564758        1.0404097551       -2.2903880751
 C         -2.5828309633        0.1873082375       -1.3690296491
 N         -2.8057125320       -1.1981958752       -1.4059947503
 S         -3.0411763981       -2.0185730172        0.0359201260
 O         -3.7928016582       -3.1974286103       -0.3427175836
 O         -3.6548671242       -1.1696312407        1.0300612411
 C         -1.4241382138       -2.5419385162        0.5626056070
 C         -0.6761949340       -3.3227730542       -0.2971094976
 C          0.5419339363       -3.8178253511        0.1381964106
 C          0.9870194880       -3.5290034523        1.4204653161
 C          0.2341936583       -2.7278019936        2.2640455848
 C         -0.9858934367       -2.2311069328        1.8339430977
 H         -1.5954726592       -1.6015112773        2.4633345620
 H          0.5887505656       -2.4779324611        3.2512304034
 H          1.9234408285       -3.9350508808        1.7709913509
 H          1.1390680229       -4.4297616120       -0.5189324863
 H         -1.0625861826       -3.5364171416       -1.2797727369
 H         -3.4564185472       -1.5034308926       -2.1154931212
 H         -3.8298971213        0.6397335582       -3.0540321622
 H         -3.3912530458        3.0630400313       -2.9300780239
 H         -1.9250323947        3.9777770990       -1.1869568849
 C         -0.5505603538        2.5388708595        0.7667862192
 H         -1.0017498046        2.2807638524        1.7364354703
 C         -0.2670510115        4.0253463669        0.7386616514
 C         -1.2258588436        4.9842782665        1.3759111757
 C          0.1025242261        4.7160439186        2.0154855920
 H          0.8564584238        5.4882097858        1.9848460270
 H          0.1276516424        4.1171461225        2.9145466551
 H         -1.3837043719        5.9446667925        0.9088447918
 H         -2.1066450179        4.5720273937        1.8451592514
 H          0.2462514171        4.3356798901       -0.1637977391
 O          1.2234020165        2.5220463167       -1.5024741807
