  62
        -98.94356461
 C         -1.9616179560       -1.4402620142        0.1768830002
 C         -2.1658156609       -0.4767763395        1.1984532777
 C         -3.1276397996        0.5894754413        0.9035301537
 C         -3.7484191805        0.6125251264       -0.2900097712
 C         -4.7973433252        1.5992914859       -0.7264221754
 C         -4.2358531944        2.9196252612       -1.2703697995
 C         -3.6420192839        3.8546475767       -0.2165687268
 H         -3.4962450032        4.8250643396       -0.6951266358
 H         -4.3624684020        3.9959211584        0.5896813065
 C         -2.3006630290        3.3832970809        0.3618968238
 H         -1.8656346970        2.6257964980       -0.2938592628
 H         -1.6065461040        4.2256084342        0.3890253355
 C         -2.3801452459        2.8188311398        1.7803143497
 H         -2.6730021571        3.6094991215        2.4749469370
 H         -1.3850227749        2.4685592187        2.0663383856
 C         -3.3557526079        1.6462320690        1.9421064287
 H         -3.1854874923        1.1911761700        2.9210868720
 H         -4.3844343512        2.0042212195        1.8987761713
 H         -5.0570735537        3.4413227745       -1.7672489739
 H         -3.4803208493        2.6929881162       -2.0258693725
 H         -5.4721027961        1.8052415227        0.1053149727
 H         -5.3661830480        1.1133382734       -1.5220861964
 O         -3.5018779530       -0.3090751017       -1.2558128327
 C         -2.5954552193       -1.3431507198       -1.0627295550
 O         -2.4685569427       -2.0833489251       -2.0560550296
 O         -1.5809893377       -0.5185303944        2.3146282632
 C         -0.9923530658       -2.5714279866        0.4807946483
 C          0.3554369634       -2.2601384697       -0.1239196133
 C          0.6375722677       -2.4868569894       -1.4663344120
 C          1.8812963035       -2.1672400842       -1.9811960092
 C          2.8646973656       -1.6187889452       -1.1763609289
 C          2.5860578367       -1.3707004306        0.1612631183
 C          1.3371788298       -1.6914565726        0.6764644885
 H          1.1163317675       -1.4883300689        1.7159516924
 N          3.5744168840       -0.8161205089        0.9945064751
 S          4.4250004478        0.5246051527        0.4690368176
 O          5.3366481058        0.1357175222       -0.5767608016
 O          5.0215411093        1.0806221924        1.6616731454
 C          3.1877022110        1.6330033220       -0.1769047857
 C          2.4277738962        2.3515520481        0.7247951523
 C          1.4292207949        3.1836247418        0.2475106584
 C          1.2006903469        3.2739795686       -1.1171614664
 C          1.9708980266        2.5447605994       -2.0093873686
 C          2.9758807824        1.7149714460       -1.5379390868
 H          3.6018884635        1.1407899527       -2.2006178572
 H          1.7912360745        2.6185875861       -3.0699351549
 H          0.4190260135        3.9189784382       -1.4866711424
 H          0.8311813725        3.7538842644        0.9400838685
 H          2.6391045356        2.2613435729        1.7783377496
 H          3.2696542466       -0.6872491081        1.9484979327
 H          3.8423314706       -1.3812114817       -1.5629122704
 H          2.0904939461       -2.3520758309       -3.0239997962
 H         -0.1301659694       -2.8919542806       -2.1059439156
 H         -0.8749016368       -2.5571052329        1.5730257353
 C         -1.5086593298       -3.9365660547        0.0760633701
 C         -0.8543354256       -5.1547185905        0.6533516402
 C         -2.2375518759       -4.7713059557        1.0840516804
 H         -3.0689612812       -5.3731164362        0.7489746280
 H         -2.3683792367       -4.3616556064        2.0751941481
 H         -0.7327750598       -6.0222429923        0.0232605330
 H         -0.0451110715       -5.0027612761        1.3518775495
 H         -1.8548366867       -3.9873589779       -0.9474233655
