  62
        -98.93600925
 C          1.6769987917       -0.4143969679        0.2288823924
 C          2.7961374423       -1.2298728183       -0.0727916427
 C          4.1282259376       -0.6794994372        0.2309065474
 C          4.2262682008        0.5644198957        0.7349346038
 C          5.4305820016        1.3669811338        1.1812186827
 C          6.8428175180        0.9393881470        0.7899135750
 C          7.1532620183        1.0462615839       -0.7026665113
 H          8.1467785189        0.6267182869       -0.8753117756
 H          7.1869536920        2.1040730939       -0.9755949921
 C          6.1559131617        0.3619479290       -1.6341729569
 H          6.4970765768        0.5181252336       -2.6612228749
 H          5.1799980456        0.8435810458       -1.5435711717
 C          5.9897242907       -1.1417899120       -1.4235236806
 H          6.9650237809       -1.6298436262       -1.4720119595
 H          5.3830465605       -1.5240619600       -2.2487837221
 C          5.2985542561       -1.5555362919       -0.1125187035
 H          6.0051581409       -1.5927441960        0.7132724385
 H          4.8976284972       -2.5643083701       -0.2472387790
 H          7.0461132194       -0.0647090106        1.1503567757
 H          7.5272158243        1.6091696144        1.3177862407
 H          5.3717050571        1.4065179255        2.2747652024
 H          5.2541555508        2.3879254867        0.8277782500
 O          3.1215707757        1.3285842493        0.9747783020
 C          1.8309943931        0.8792264223        0.7258309617
 O          0.9519677649        1.7216829562        0.9836009688
 O          2.6881825575       -2.3800836112       -0.5749217268
 C          0.2995038803       -0.9781663076       -0.0696632287
 C         -0.5418162652        0.0342525271       -0.8025653973
 C         -0.1850409517        0.3905198541       -2.1009455767
 C         -0.9215394338        1.3219926062       -2.8058105877
 C         -2.0438605271        1.9019082002       -2.2399604999
 C         -2.4064895037        1.5553422014       -0.9445773536
 C         -1.6567174490        0.6276630856       -0.2335404472
 H         -1.9305569179        0.4146253457        0.7854713955
 N         -3.5374336632        2.1229709533       -0.3434121388
 S         -4.4660143726        1.2300417133        0.7141853492
 O         -5.7778964205        1.8389903392        0.6402627399
 O         -3.8687940962        1.1956693839        2.0251092075
 C         -4.5227139883       -0.4173969975        0.0277450439
 C         -4.1638101537       -1.4938633093        0.8125212687
 C         -4.2071049755       -2.7676096152        0.2679257850
 C         -4.6046119705       -2.9413960284       -1.0483926602
 C         -4.9687471692       -1.8505214443       -1.8228464596
 C         -4.9306612329       -0.5757913272       -1.2820161113
 H         -5.2155950997        0.2898451568       -1.8572131448
 H         -5.2807549729       -1.9898633766       -2.8452806673
 H         -4.6317937420       -3.9330362703       -1.4717552597
 H         -3.9265647728       -3.6171436364        0.8703383704
 H         -3.8534594957       -1.3122175204        1.8292971028
 H         -4.0921679860        2.7209876520       -0.9367622934
 H         -2.6236444116        2.6282010548       -2.7889071151
 H         -0.6268953845        1.5946036179       -3.8079801921
 H          0.6889613731       -0.0660111385       -2.5452679552
 H          0.4946003915       -1.8176048649       -0.7578033384
 C         -0.4111750592       -1.5675205130        1.1390505229
 C          0.3553514914       -2.2066859940        2.2566606839
 C         -0.3761760163       -0.9201874578        2.4895621509
 H         -1.2747904316       -0.9326922080        3.0900197285
 H          0.1951637363       -0.0109992688        2.5958461783
 H         -0.0364474063       -3.1104044730        2.6983441659
 H          1.4340204253       -2.1765320692        2.2054190097
 H         -1.3432208787       -2.0483579773        0.8570207679
