  62
        -98.94690803
 C         -2.0521122332       -1.0636197936       -0.5234745847
 C         -1.4860868012        0.0593050462       -1.1733039185
 C         -2.1929695517        1.3363285951       -0.9916757684
 C         -3.3006618178        1.3822739259       -0.2318927228
 C         -4.0824817394        2.6244463005        0.0809112768
 C         -3.5865377286        3.2870329191        1.3732849130
 C         -2.0707777912        3.4808665842        1.4322571720
 H         -1.8459214530        3.9990305759        2.3676123370
 H         -1.5775919565        2.5066510547        1.4855916591
 C         -1.4826005024        4.2728030324        0.2562498924
 H         -2.2712177217        4.8345372021       -0.2470501808
 H         -0.7655293221        4.9968057062        0.6491850820
 C         -0.7329642726        3.4125355409       -0.7628147257
 H         -0.0322860721        2.7623550800       -0.2323299014
 H         -0.1481458894        4.0759310007       -1.4063386237
 C         -1.6143952518        2.5454031570       -1.6714942132
 H         -2.4061063421        3.1570626938       -2.1097431110
 H         -0.9863283750        2.1646695923       -2.4821011856
 H         -4.0811866313        4.2550464058        1.4754599197
 H         -3.8834251188        2.6625092611        2.2192437936
 H         -3.9974585517        3.3202783622       -0.7515408963
 H         -5.1308337952        2.3472627734        0.2058266091
 O         -3.8203155236        0.2855050213        0.3766702494
 C         -3.2052850747       -0.9480165122        0.2590329976
 O         -3.7824654692       -1.8646207717        0.8798377910
 O         -0.4486743226        0.0251389960       -1.8867493707
 C         -1.4438094009       -2.4586738756       -0.5572991342
 C         -0.4222944530       -2.5908336481        0.5482389735
 C         -0.5656384208       -3.5581188809        1.5352743272
 C          0.3461638758       -3.6427576954        2.5724226665
 C          1.3974441363       -2.7490992751        2.6556717986
 C          1.5502787813       -1.7758080633        1.6726048090
 C          0.6600749279       -1.7235879521        0.6108490410
 H          0.7839591129       -0.9712397808       -0.1492776821
 N          2.6053624069       -0.8570973685        1.7453108674
 S          2.4227524823        0.7574986086        1.3128085324
 O          3.2025006208        1.4818471378        2.2979131559
 O          1.0335570465        1.1272061999        1.2075220539
 C          3.2761903496        0.8551715938       -0.2470489722
 C          2.5892407114        0.8812374762       -1.4425889491
 C          3.3124870198        0.9294248685       -2.6257521842
 C          4.6973960517        0.9502102752       -2.5952954647
 C          5.3730283216        0.9258035585       -1.3839490735
 C          4.6580297801        0.8776882793       -0.1995572011
 H          5.1410910679        0.8711486688        0.7634630031
 H          6.4507761504        0.9435264660       -1.3607184770
 H          5.2521404443        0.9863759424       -3.5197587977
 H          2.7810302405        0.9459121275       -3.5639767408
 H          1.5102541514        0.8536083690       -1.4511914731
 H          3.1706013645       -0.9402525854        2.5775864004
 H          2.0941068560       -2.7958315164        3.4793028399
 H          0.2256787513       -4.3981643692        3.3342604079
 H         -1.4102570751       -4.2304433583        1.4981714176
 H         -2.2691983611       -3.1474507372       -0.3291424761
 C         -0.8525254745       -2.8516765463       -1.8959657600
 C         -0.7205500974       -4.3066642007       -2.2277165236
 C         -1.7378042551       -3.4648415470       -2.9368601418
 H         -1.5689678052       -3.2075082770       -3.9715152217
 H         -2.7798180284       -3.6048155138       -2.6872225491
 H          0.1502556246       -4.6316066288       -2.7758215789
 H         -1.0742384833       -5.0211769629       -1.4997775504
 H         -0.0737077914       -2.1840132811       -2.2377106504
