  62
        -98.93942236
 C          0.0242501707       -1.9191180319       -0.5717420958
 C          0.7856678824       -1.9428142116        0.6206045484
 C          2.1859829018       -1.5149474012        0.4952179337
 C          2.6590845465       -1.1237229270       -0.7017046316
 C          4.0809532954       -0.7494323280       -1.0300505547
 C          4.6372364711        0.5083977257       -0.3371979709
 C          5.3978433988        0.2344646587        0.9655869140
 H          6.2806479834        0.8758090599        1.0011261572
 H          5.7596246803       -0.7943649843        0.9564806771
 C          4.6052390986        0.4885041827        2.2512128801
 H          4.5638800935        1.5632899342        2.4393652196
 H          5.1506280412        0.0300139022        3.0788793432
 C          3.1684122264       -0.0340469385        2.2556613818
 H          2.5358197860        0.6141526167        1.6438566273
 H          2.7827536697        0.0333219904        3.2747576207
 C          3.0151078755       -1.4801649195        1.7457032699
 H          2.4842942426       -2.0824640132        2.4857933918
 H          3.9903425659       -1.9327119791        1.5714037669
 H          3.8210243027        1.2046721588       -0.1549331812
 H          5.3239134099        0.9794681953       -1.0419444092
 H          4.7236836035       -1.6035454924       -0.8036643030
 H          4.0993018457       -0.5998108046       -2.1114812709
 O          1.8756959185       -1.0704006179       -1.8151643798
 C          0.5464830665       -1.4559329897       -1.7778574719
 O         -0.0537328105       -1.3422105673       -2.8673615213
 H         -1.3614915472        0.2650406476       -0.3292591292
 C         -2.0575777178       -0.1609344399        0.3781927473
 C         -2.2181988078       -1.5401897692        0.4241397301
 C         -3.1183518998       -2.0743864192        1.3364394346
 C         -3.8290745548       -1.2425556853        2.1844391131
 C         -3.6778388495        0.1300330897        2.1236384948
 C         -2.7856365112        0.6758333090        1.2066693703
 N         -2.6028258007        2.0630515215        1.1185042256
 S         -2.3242860802        2.8021582736       -0.3564526681
 O         -2.8227003779        4.1500543334       -0.1762876865
 O         -2.8990388179        2.0531157435       -1.4480168371
 C         -0.5522171984        2.8894077732       -0.5002002374
 C          0.1066336934        2.2182158914       -1.5103566614
 C          1.4785947200        2.3744381160       -1.6352874831
 C          2.1628006307        3.2004949957       -0.7568620567
 C          1.4892779655        3.8550192437        0.2638258112
 C          0.1194718349        3.7002624751        0.3944758406
 H         -0.4446906908        4.2076754422        1.1590937494
 H          2.0270297232        4.4894429697        0.9498167005
 H          3.2256666266        3.3428676611       -0.8752901501
 H          1.9993860764        1.8472528101       -2.4194050629
 H         -0.4529929961        1.5879664430       -2.1861065956
 H         -3.2145533468        2.6120128128        1.7044575489
 H         -4.2408592904        0.7772119838        2.7788258144
 H         -4.5189404411       -1.6696864854        2.8964719565
 H         -3.2606276913       -3.1412240794        1.3883557994
 C         -1.4218128290       -2.3764601134       -0.5481998967
 H         -1.8208579775       -2.1844628739       -1.5560372613
 C         -1.4918395777       -3.8639708446       -0.2698878741
 C         -2.6159299150       -4.6859736632       -0.8225289581
 C         -1.2371417520       -4.8214609222       -1.3935394734
 H         -0.6778506537       -5.7218032717       -1.1881955779
 H         -1.0414919350       -4.3991119848       -2.3688451941
 H         -3.3615872226       -4.1787151051       -1.4162743076
 H         -3.0035403671       -5.4983951420       -0.2264433294
 H         -1.0974898462       -4.1222504424        0.7061152404
 O          0.3276655428       -2.3204068768        1.7302388232
