  62
        -98.94848592
 C          0.8306640440        1.2262219475        0.5672305732
 C          1.2016072240        0.5386724951       -0.6130480370
 C          2.1424238580       -0.5732555771       -0.4257367334
 C          2.4741897408       -0.9638496660        0.8175847126
 C          3.4154820198       -2.0830343247        1.1721213349
 C          4.8913178450       -1.6607037494        1.1933507190
 C          5.5122304782       -1.4140657084       -0.1823878640
 H          6.5916499721       -1.3387220100       -0.0367441461
 H          5.3298158503       -2.2782115941       -0.8217043946
 C          5.0185611948       -0.1397466441       -0.8819750162
 H          4.5419203793        0.5164906591       -0.1499322835
 H          5.8733474370        0.4051519667       -1.2890936649
 C          4.0458269869       -0.3841603898       -2.0361774573
 H          4.5561317078       -0.9270926285       -2.8345984760
 H          3.7374316410        0.5864751586       -2.4323841243
 C          2.7809652915       -1.1622263982       -1.6465767370
 H          2.0621720561       -1.0825066337       -2.4646928188
 H          3.0231101339       -2.2116028897       -1.4859089293
 H          4.9888887904       -0.7609574334        1.8054454171
 H          5.4529260820       -2.4584818275        1.6850823877
 H          3.1379730772       -2.4208762116        2.1730416336
 H          3.2892327586       -2.9111213054        0.4747317537
 O          1.9667213576       -0.3708021375        1.9331074117
 C          1.1928399182        0.7750905986        1.8354528135
 O          0.8885298180        1.2867674061        2.9335143084
 H         -1.6978608420        0.5716090287        1.0928947375
 C         -2.0752234867        1.1772263785        0.2809282089
 C         -1.3138259086        2.2400119590       -0.1900245143
 C         -1.8256482570        3.0229766746       -1.2166669775
 C         -3.0647516580        2.7370723735       -1.7628433760
 C         -3.8166150676        1.6743924586       -1.2980121228
 C         -3.3172434452        0.8917642475       -0.2621286048
 N         -4.0680430641       -0.1760543955        0.2493172752
 S         -3.3335646055       -1.5093474444        0.9162237714
 O         -4.3662828308       -2.5255052523        0.8956164422
 O         -2.7973252469       -1.1989614444        2.2184201632
 C         -2.0256459623       -2.0085394933       -0.1892421573
 C         -0.8919985741       -2.5715755957        0.3589409230
 C          0.0804035181       -3.0830719259       -0.4841443059
 C         -0.0902155782       -3.0115044082       -1.8571996851
 C         -1.2245958432       -2.4243963497       -2.3935766008
 C         -2.2083641465       -1.9267795512       -1.5550619385
 H         -3.1043168985       -1.4792186583       -1.9528527856
 H         -1.3487135572       -2.3571331082       -3.4622675440
 H          0.6654320564       -3.4149913837       -2.5121066609
 H          0.9615072237       -3.5387233794       -0.0626875798
 H         -0.7914113801       -2.5950249883        1.4331892935
 H         -4.9078932581       -0.4079287066       -0.2594100957
 H         -4.7834016562        1.4526577536       -1.7231254506
 H         -3.4493172309        3.3496901545       -2.5638309879
 H         -1.2545764464        3.8558250970       -1.5916975217
 C          0.0151527381        2.5024363842        0.4731188605
 H         -0.1850455609        2.8111029533        1.5102174799
 C          0.8331000972        3.5805994679       -0.2088972952
 C          0.6122735627        5.0241325961        0.1256214007
 C          1.8539636776        4.3277429374        0.5934789138
 H          2.7951734381        4.5785592316        0.1275894224
 H          1.9393777393        4.0780539454        1.6415727363
 H         -0.1437134168        5.2571551371        0.8602471593
 H          0.7048046230        5.7572922621       -0.6613617811
 H          1.0920457675        3.3233137752       -1.2294837952
 O          0.7920085938        0.8483023598       -1.7605446496
