  62
        -98.94277031
 C         -0.9560453009       -1.9647468778       -0.4795836306
 C         -1.5168932001       -0.9871019229       -1.3379958845
 C         -2.8328450938       -0.4636981026       -0.9292764534
 C         -3.3903757233       -0.8520076068        0.2296322401
 C         -4.7155323955       -0.3975263813        0.7783609041
 C         -4.6566551771        0.9549331677        1.5013658928
 C         -4.5404631427        2.1773097695        0.5899458882
 H         -5.3065137782        2.1264895343       -0.1852131626
 H         -4.7547833918        3.0539466743        1.2047592381
 C         -3.1611414116        2.3620207829       -0.0575908753
 H         -2.8666508643        3.4126013699        0.0135074754
 H         -2.4121031477        1.7940798867        0.5007917050
 C         -3.0992197626        1.9757028769       -1.5351434767
 H         -2.0750740615        2.1248338393       -1.8848617447
 H         -3.7475354453        2.6403635487       -2.1116048020
 C         -3.5020624988        0.5269442924       -1.8363430427
 H         -3.1935889567        0.2953716286       -2.8592358093
 H         -4.5848062531        0.4207065958       -1.7662511831
 H         -3.8148168088        0.9439701806        2.1983629195
 H         -5.5739202928        1.0518830982        2.0874101562
 H         -5.4517666854       -0.3503805297       -0.0250684380
 H         -5.0311316278       -1.1591308596        1.4948843064
 O         -2.7967006319       -1.7559102435        1.0540453976
 C         -1.5860873497       -2.3329021156        0.7141711296
 O         -1.1707420885       -3.1703040516        1.5415224428
 O         -0.9935258104       -0.5617928330       -2.3983218824
 C          0.3788221502       -2.6672586327       -0.6967354257
 C          1.3619169115       -2.2359023666        0.3641606223
 C          2.2624093165       -3.1307660898        0.9292604281
 C          3.1593479557       -2.7049038142        1.8929916668
 C          3.1727507090       -1.3875880334        2.3139699811
 C          2.2649308320       -0.4871637020        1.7651253284
 C          1.3811200788       -0.9155794672        0.7860024270
 H          0.6618542948       -0.2235355499        0.3789540626
 N          2.2304930324        0.8385989090        2.1939155481
 S          1.3045490943        2.0340766953        1.5105876202
 O          1.6919594647        3.2235042418        2.2391523626
 O         -0.0954981375        1.6915102744        1.5547624395
 C          1.8818398802        2.1594626213       -0.1699493961
 C          3.2090308170        2.4836472856       -0.3762766040
 C          3.6844617824        2.5652943473       -1.6745084570
 C          2.8306167879        2.3211400636       -2.7403638919
 C          1.5004511955        2.0036727416       -2.5172735104
 C          1.0204787934        1.9232406169       -1.2199902830
 H         -0.0057432372        1.6622731153       -1.0151164670
 H          0.8297958470        1.7969092705       -3.3357595872
 H          3.2036075447        2.3775949180       -3.7508021052
 H          4.7182287018        2.8141337581       -1.8526173487
 H          3.8405133601        2.6738945627        0.4760015512
 H          2.9341410531        1.1439776563        2.8449485439
 H          3.8629673463       -1.0594510071        3.0756181073
 H          3.8520093539       -3.4087066188        2.3290155579
 H          2.2393929756       -4.1683004064        0.6301820080
 H          0.1859649848       -3.7423689974       -0.5366948912
 C          0.9502951957       -2.5146317257       -2.0977654485
 C          1.9993046663       -1.5038622929       -2.4390880618
 C          2.3478878923       -2.9602154002       -2.4113600431
 H          2.5221071775       -3.4670682140       -3.3483414336
 H          2.9631179281       -3.3100881750       -1.5969735844
 H          1.9184495090       -1.0006365453       -3.3896072704
 H          2.3728331229       -0.8733637664       -1.6460263996
 H          0.2026339596       -2.7030034880       -2.8591639958
