  62
        -98.93876311
 C         -2.7479125710       -0.6851326263       -0.1298913305
 C         -2.3641242535        0.2420254488       -1.1321312276
 C         -2.6234453884        1.6603286292       -0.8216937078
 C         -3.2149395724        1.9945730343        0.3376725950
 C         -3.4884927718        3.3972460287        0.7961684123
 C         -2.3259931058        3.9466416944        1.6337810670
 C         -0.9532058953        3.7696855930        0.9840040011
 H         -0.2198774768        4.2409003814        1.6422919959
 H         -0.7023676921        2.7068846005        0.9376090045
 C         -0.8341584742        4.3688760937       -0.4238717585
 H         -1.6345462950        5.0913825367       -0.5911431976
 H          0.1128655982        4.9076417347       -0.4951642689
 C         -0.8384999157        3.3321212276       -1.5492393507
 H         -0.1131160121        2.5461357072       -1.3212331508
 H         -0.5094780477        3.8246197206       -2.4689681600
 C         -2.1935670372        2.6748899988       -1.8434991621
 H         -2.9584146013        3.4452434946       -1.9678949318
 H         -2.0988624687        2.1277475558       -2.7864225044
 H         -2.5069584010        5.0073905987        1.8182479808
 H         -2.3185073854        3.4293418817        2.5959431326
 H         -3.6565302891        4.0309975771       -0.0723538615
 H         -4.3920576822        3.3864828602        1.4083335757
 O         -3.6045848894        1.0745073159        1.2580167969
 C         -3.3515048174       -0.2709659108        1.0604930639
 O         -3.7238033869       -1.0028948202        2.0009007033
 H         -0.1492185246       -0.7921621342       -0.1591977396
 C         -0.1045842643       -1.6699131924        0.4674595360
 C         -1.2117978430       -2.4990979866        0.5702364428
 C         -1.1340421415       -3.6195151985        1.3891483632
 C          0.0330192346       -3.9074326622        2.0745242892
 C          1.1399770377       -3.0871736072        1.9564271370
 C          1.0661278879       -1.9520931605        1.1551507109
 N          2.1535689972       -1.0699838745        1.0626467485
 S          2.3411278505       -0.1428110281       -0.3364114338
 O          1.4535880836        0.9882236189       -0.2636079803
 O          2.2406102984       -0.9891313680       -1.5035597702
 C          4.0255993849        0.4004126123       -0.1214072993
 C          4.2720896450        1.5284483244        0.6376876340
 C          5.5837418760        1.9319372425        0.8316169287
 C          6.6211598017        1.2044484472        0.2674637107
 C          6.3583408211        0.0757496659       -0.4943454866
 C          5.0488768482       -0.3333828314       -0.6914558713
 H          4.7955674371       -1.1969298233       -1.2853492605
 H          7.1664136077       -0.4854037075       -0.9351746708
 H          7.6408708739        1.5212453190        0.4193471938
 H          5.7914074213        2.8110674286        1.4199631038
 H          3.4326348767        2.0658230684        1.0475262382
 H          3.0257118188       -1.4758594599        1.3722208926
 H          2.0505072607       -3.3121780588        2.4903493142
 H          0.0823903570       -4.7812762234        2.7062452549
 H         -1.9999473339       -4.2560830428        1.4970235060
 C         -2.4708327000       -2.1789777560       -0.1975412795
 H         -3.3079846108       -2.6627814264        0.3330684046
 C         -2.4445238067       -2.7456632942       -1.6088900887
 C         -1.1791335360       -3.0257558145       -2.3562092743
 C         -2.0132621142       -4.1623643682       -1.8512212693
 H         -2.5667298180       -4.7521406390       -2.5661333112
 H         -1.6352710090       -4.7230951737       -1.0100088740
 H         -1.1680439148       -2.8108286435       -3.4139219206
 H         -0.2389218997       -2.8086551130       -1.8712262923
 H         -3.2779000595       -2.3824883527       -2.2014464090
 O         -1.8471422925       -0.0667663806       -2.2361293464
