  62
        -98.94605127
 C          1.9414333799        1.3120260097        0.2236782106
 C          1.7404691298       -0.0845690703        0.1181036405
 C          2.9125359996       -0.9189375704        0.4100166607
 C          4.0775104196       -0.3401998406        0.7539650509
 C          5.3553347595       -1.0576282607        1.0956728511
 C          6.1896516997       -1.4648111908       -0.1266956187
 C          5.6260599597       -2.6291938107       -0.9424282989
 H          6.4133457698       -2.9502703508       -1.6273984287
 H          5.4118306995       -3.4667951207       -0.2779538089
 C          4.3732962699       -2.2831913705       -1.7595485691
 H          4.2839095500       -1.1978408205       -1.8475312391
 H          4.4788710300       -2.6776215005       -2.7727861091
 C          3.0697939497       -2.8419421104       -1.1890444294
 H          3.0934076596       -3.9334471604       -1.2230193394
 H          2.2458542099       -2.5026138903       -1.8221300495
 C          2.7744673795       -2.4029150604        0.2507616006
 H          1.7397216994       -2.6644465603        0.4845122204
 H          3.4329877993       -2.9234911205        0.9455844707
 H          6.3115059699       -0.5924845708       -0.7730328587
 H          7.1799829796       -1.7496556609        0.2360290814
 H          5.9468047495       -0.3670854908        1.7006848513
 H          5.1315257393       -1.9404155407        1.6952795411
 O          4.2254871998        1.0081426794        0.8536567410
 C          3.1702234999        1.8647214595        0.5831230708
 O          3.4446937400        3.0757517595        0.7061484709
 H         -1.8411683598        1.8296420301       -0.8155955101
 C         -1.6681498700        1.7273273401        0.2420618299
 C         -0.4021866101        1.9067315699        0.7757042202
 C         -0.2328985304        1.7706985599        2.1519936602
 C         -1.2993034006        1.4453940899        2.9666434400
 C         -2.5573751705        1.2403683801        2.4261145298
 C         -2.7397302402        1.3823050702        1.0565177997
 N         -4.0127404001        1.2127538203        0.4830372695
 S         -4.2504279400        0.1881982004       -0.8184237506
 O         -3.4317989498        0.6007861604       -1.9283049904
 O         -5.6805107300        0.2106851806       -1.0374737808
 C         -3.7722099403       -1.4314099297       -0.2413406506
 C         -4.7693247305       -2.3242916096        0.1036888992
 C         -4.4176296007       -3.5737808096        0.5865542892
 C         -3.0781950908       -3.9064061798        0.7240563795
 C         -2.0916384706       -2.9964522099        0.3789619297
 C         -2.4341984904       -1.7446326098       -0.1094437503
 H         -1.6700008802       -1.0325085599       -0.3777618502
 H         -1.0467025806       -3.2418029200        0.4834926899
 H         -2.8011158009       -4.8785701898        1.1006379295
 H         -5.1853471808       -4.2820309795        0.8539409291
 H         -5.7967138704       -2.0235044894       -0.0242098009
 H         -4.7488249403        1.0679419404        1.1598875394
 H         -3.3907568206        0.9778674102        3.0601067096
 H         -1.1503830008        1.3420804999        4.0309507400
 H          0.7528181796        1.9205078497        2.5722164304
 C          0.7943603301        2.2606022498       -0.0731518396
 H          1.1406552602        3.2623921598        0.2210055705
 C          0.5005746304        2.2672555999       -1.5591657996
 C         -0.0750505994        3.4878982700       -2.2094475697
 C          1.3508993106        3.1040156898       -2.4648676195
 H          1.6146949308        2.7102484698       -3.4351178894
 H          2.1311935806        3.6937689397       -2.0054799393
 H         -0.2639179194        4.3463622100       -1.5825359897
 H         -0.7954582092        3.3551439801       -3.0028575398
 H          0.1828611403        1.2988888400       -1.9305644097
 O          0.6415294198       -0.6094880202       -0.1959527097
