  62
        -98.94055458
 C         -1.7337484919       -0.8207439399        0.1709503985
 C         -3.0316363705       -1.0190317410        0.6946996339
 C         -3.9647223677        0.1167893906        0.5930849105
 C         -3.5495841170        1.2633999440        0.0224483931
 C         -4.2554797917        2.5880699931       -0.1798289773
 C         -5.7695703142        2.6998526378       -0.0218384515
 C         -6.5802775967        1.9509865618       -1.0789516071
 H         -7.6368738171        2.0196566358       -0.8109910752
 H         -6.4477884744        2.4544525082       -2.0399805114
 C         -6.2121806648        0.4822901555       -1.2747059083
 H         -5.1868745785        0.4062728171       -1.6428250551
 H         -6.8631957745        0.0755613866       -2.0534362071
 C         -6.3619750299       -0.4004285604       -0.0371352083
 H         -6.2248752273       -1.4375438955       -0.3551218166
 H         -7.3733811559       -0.3048620270        0.3625692961
 C         -5.3579561956       -0.1281970638        1.0965850870
 H         -5.6882951649        0.6920140877        1.7293837693
 H         -5.3048579294       -1.0241550447        1.7220015996
 H         -6.0135114291        3.7619497439       -0.1115553534
 H         -6.0687578087        2.3921948276        0.9757408253
 H         -3.9754884417        2.9226714068       -1.1837631317
 H         -3.7829459322        3.2860639406        0.5200757816
 O         -2.2794295259        1.4105990210       -0.4572874909
 C         -1.3492195704        0.3861133470       -0.4075022865
 O         -0.2425487300        0.6752674387       -0.8991611630
 O         -3.3954024417       -2.0967270764        1.2377310349
 C         -0.7294641277       -1.9570381903        0.2317158787
 C          0.4999184119       -1.5188610859        0.9873451731
 C          0.3475583187       -1.0346591220        2.2852825044
 C          1.4408233360       -0.6215284034        3.0203798757
 C          2.7117814388       -0.6733726980        2.4732589295
 C          2.8757300344       -1.1566844175        1.1819693355
 C          1.7753322124       -1.5855540240        0.4501151893
 H          1.9366098813       -1.9484441200       -0.5505994021
 N          4.1573419828       -1.2435549472        0.6032558805
 S          4.4651252581       -0.4250786990       -0.8261246386
 O          3.6007434725       -0.9127303226       -1.8679370921
 O          5.8860318164       -0.5931278716       -1.0438400731
 C          4.1246559780        1.2834096959       -0.4416368355
 C          2.8191326064        1.7309097159       -0.4194109027
 C          2.5748488273        3.0436446585       -0.0440228468
 C          3.6260483535        3.8784680450        0.3005757358
 C          4.9317768550        3.4113799244        0.2720048686
 C          5.1847511257        2.1007168183       -0.0969231539
 H          6.1829211255        1.6951733865       -0.1373121305
 H          5.7490782213        4.0623801518        0.5376916031
 H          3.4255769087        4.8978595743        0.5910590242
 H          1.5553427362        3.3955014080       -0.0256245306
 H          2.0082161197        1.0742123996       -0.6931139365
 H          4.9069671078       -1.0556800004        1.2550299254
 H          3.5687696199       -0.3468562917        3.0428480699
 H          1.3046647920       -0.2505584614        4.0249273214
 H         -0.6467576289       -0.9881425550        2.7085069377
 H         -1.2223863539       -2.7518571993        0.8111317452
 C         -0.4371169270       -2.4820391284       -1.1577764451
 C          0.0167749037       -3.8979514548       -1.3441889682
 C         -1.3632430455       -3.4916047964       -1.7637904096
 H         -1.5839548350       -3.4217017179       -2.8184642494
 H         -2.1988199088       -3.8209216707       -1.1633737078
 H          0.7486673550       -4.1055173629       -2.1104372921
 H          0.1188389875       -4.5098913101       -0.4606665016
 H         -0.0242488304       -1.7257922689       -1.8171791931
