  62
        -98.93202376
 C         -2.2398180805       -1.2456833043        0.0527181798
 C         -2.5737622092        0.0166620384       -0.4950109539
 C         -3.7189077048        0.7042730712        0.1257276933
 C         -4.3415423030        0.1561733790        1.1834492017
 C         -5.4809128020        0.7492133039        1.9692813306
 C         -6.8144415290        0.9169060689        1.2154293705
 C         -7.0161532348        2.3013277978        0.5870151902
 H         -8.0580222989        2.5991128889        0.7213436491
 H         -6.4106710385        3.0261122639        1.1326472265
 C         -6.7122476840        2.4059706485       -0.9106422580
 H         -6.6498129993        3.4659801780       -1.1662321194
 H         -7.5458807982        1.9809817943       -1.4744029148
 C         -5.4376892579        1.7068780192       -1.3840512180
 H         -5.6027467781        0.6272123885       -1.4179145210
 H         -5.2379259510        2.0199549131       -2.4109262958
 C         -4.1937923524        1.9764371918       -0.5148908517
 H         -3.3743867012        2.3383839026       -1.1395184688
 H         -4.4082733070        2.7304460838        0.2410398935
 H         -7.6107446135        0.7552510762        1.9436272050
 H         -6.9057280778        0.1374629982        0.4594122738
 H         -5.6319625295        0.0735997775        2.8135922474
 H         -5.1664356472        1.7164932126        2.3676336472
 O         -3.9592370817       -1.0389480909        1.7103019376
 C         -2.9290601679       -1.7716050930        1.1505258542
 O         -2.7186174421       -2.8654985498        1.7106234039
 H          0.0452180239        0.2989799028       -0.4627011575
 C          0.6690163075       -0.4535004135       -0.0018750280
 C          0.2107802170       -1.7619855047        0.0731703714
 C          1.0305801477       -2.7208363755        0.6555880503
 C          2.2780964263       -2.3769521231        1.1469578460
 C          2.7350870641       -1.0740898703        1.0587630944
 C          1.9227126321       -0.1091554887        0.4781125999
 N          2.4018687663        1.2169775567        0.3588475958
 S          3.6335231697        1.3878196464       -0.7818128491
 O          3.6470937914        2.7903531724       -1.1350018179
 O          3.4684659604        0.4520194640       -1.8713468131
 C          5.1097658016        0.9979714738        0.1328697874
 C          5.4597504724        1.8183652997        1.1877133566
 C          6.6043901842        1.5247291011        1.9114691867
 C          7.3755971273        0.4237269965        1.5687644486
 C          7.0122190816       -0.3876305678        0.5047074491
 C          5.8678426824       -0.1001671089       -0.2229854796
 H          5.5418785436       -0.7045531436       -1.0541308952
 H          7.6130837793       -1.2427274186        0.2399251626
 H          8.2655901769        0.1969562016        2.1343059496
 H          6.8907763372        2.1532607605        2.7392392928
 H          4.8343053932        2.6652406968        1.4159346924
 H          1.6638570817        1.8698710649        0.1296129940
 H          3.7056624440       -0.7994509455        1.4383512601
 H          2.9023546580       -3.1314156302        1.6004089402
 H          0.6789407509       -3.7397222765        0.7282774062
 C         -1.1331314828       -2.1314241880       -0.4978757291
 H         -1.3771871575       -3.1442271457       -0.1406807272
 C         -1.1268253279       -2.1806758561       -2.0218420967
 C         -0.0320261629       -1.6256411090       -2.8789637946
 C         -0.1888632104       -3.1080857358       -2.7363661711
 H         -0.5589278306       -3.6764164368       -3.5761607754
 H          0.5439435672       -3.6277961468       -2.1375053607
 H          0.8165399387       -1.1509062070       -2.4096200139
 H         -0.3191144500       -1.1590547564       -3.8095615809
 H         -2.1301562850       -2.1018708720       -2.4289641324
 O         -1.9589074733        0.5680030318       -1.4458891742
