  62
        -98.94278111
 C         -1.2977539090       -1.6283077336        0.2274981598
 C         -1.6440626709       -0.6171230939        1.1531377380
 C         -2.8398384689        0.1832868948        0.8443622893
 C         -3.5206757611       -0.0651960235       -0.2877229993
 C         -4.7973398750        0.5653912758       -0.7884389688
 C         -4.9836744785        2.0734530700       -0.5920690491
 C         -3.7078666790        2.9099982555       -0.7664502323
 H         -2.9068617536        2.3003910136       -1.1901566473
 H         -3.9051402198        3.7196178491       -1.4719144685
 C         -3.2157917641        3.5327368468        0.5413120997
 H         -2.5537514424        4.3683526958        0.3011823831
 H         -4.0711282288        3.9330825945        1.0910141699
 C         -2.4292064809        2.5845577897        1.4434822395
 H         -2.1748537538        3.1228275952        2.3602616426
 H         -1.4879780637        2.3264406246        0.9488576568
 C         -3.1553858651        1.2808460759        1.8195814305
 H         -2.7682336707        0.9445512295        2.7854685831
 H         -4.2265956638        1.4421271565        1.9149888651
 H         -5.4047674273        2.2659663279        0.3935834027
 H         -5.7308003241        2.3932747115       -1.3208121144
 H         -5.6360056955        0.0394025514       -0.3215104243
 H         -4.8276377189        0.3319015075       -1.8558187206
 O         -3.1321707585       -1.0299458365       -1.1705524471
 C         -2.0056643452       -1.8092181153       -0.9587073260
 O         -1.7555465278       -2.6092892810       -1.8807269357
 O         -0.9830212470       -0.3965601562        2.2044987783
 C         -0.0514440963       -2.4552768069        0.4799470886
 C          1.0286965175       -2.0955105967       -0.5129096042
 C          1.9282843905       -3.0152678037       -1.0376111567
 C          2.9128730458       -2.6027821740       -1.9194824760
 C          3.0390769026       -1.2729451591       -2.2791925241
 C          2.1457842173       -0.3445790790       -1.7564101828
 C          1.1537789370       -0.7652205602       -0.8867329820
 H          0.4501148986       -0.0398510332       -0.5114480841
 N          2.2214325369        1.0147819032       -2.0914377222
 S          1.8161446988        2.1798865114       -0.9616394039
 O          0.3904243038        2.2129594336       -0.7572029035
 O          2.4051552574        3.3945739988       -1.4850173301
 C          2.6803845332        1.6925299882        0.5208205658
 C          2.0145745011        1.1452463640        1.5977057501
 C          2.7511386128        0.7365647410        2.6996275505
 C          4.1289448652        0.8806347469        2.7083387048
 C          4.7830588493        1.4409109457        1.6209428754
 C          4.0542728232        1.8477347951        0.5165909315
 H          4.5224902118        2.2994341118       -0.3429561879
 H          5.8546623474        1.5581674595        1.6305433128
 H          4.6944757009        0.5572690974        3.5680028990
 H          2.2324209359        0.3029926699        3.5398564589
 H          0.9416019293        1.0333990046        1.5788125764
 H          3.0248124874        1.2802955837       -2.6408878084
 H          3.8102425749       -0.9558661300       -2.9641567371
 H          3.5992985443       -3.3286508842       -2.3281366589
 H          1.8535122277       -4.0547132577       -0.7631462462
 H          0.3031703636       -2.1457374312        1.4757398918
 C         -0.3703387777       -3.9347264851        0.5167032509
 C          0.4159642310       -4.8563196120        1.3994248264
 C         -0.9979379252       -4.5077640150        1.7512122420
 H         -1.7625406042       -5.2614988722        1.6382671188
 H         -1.1693890373       -3.8341847287        2.5782987352
 H          0.6221099844       -5.8556841083        1.0468833440
 H          1.2052074311       -4.4255751783        1.9968192030
 H         -0.7165082809       -4.3093675582       -0.4396179094
