  62
        -98.94031902
 C         -1.5033982774       -1.6676706996       -0.2060867627
 C         -1.4285643253       -0.2955686640       -0.5397281799
 C         -2.7075358221        0.4375567805       -0.5882875715
 C         -3.8532567817       -0.2087496079       -0.3041042561
 C         -5.2900625672        0.2703569272       -0.3008691421
 C         -5.6150139757        1.7621049666       -0.3150201930
 C         -5.2065044519        2.5218055177        0.9468842545
 H         -5.4005245130        3.5839198664        0.7817571679
 H         -5.8438854323        2.1925408867        1.7715182414
 C         -3.7553592185        2.3442798154        1.3880313070
 H         -3.5793740668        1.3010300228        1.6584035296
 H         -3.6078736762        2.9392036503        2.2934884683
 C         -2.7021743803        2.7771724431        0.3697816347
 H         -1.7288327041        2.7376663978        0.8658457990
 H         -2.8873804289        3.8098316220        0.0684854398
 C         -2.6065221280        1.9039967289       -0.8927870970
 H         -3.3448193494        2.1954324586       -1.6356953812
 H         -1.6156107554        2.0533180371       -1.3304982336
 H         -5.1893614891        2.2316477516       -1.1968058851
 H         -6.7016713273        1.8411567319       -0.4088374692
 H         -5.7616612782       -0.1941491544       -1.1740573150
 H         -5.7536755419       -0.1885163023        0.5782082475
 O         -3.8723526431       -1.5385977379        0.0105814789
 C         -2.7148470806       -2.2930080885        0.0790277251
 O         -2.8942857913       -3.4847422511        0.4033693307
 O         -0.3488399944        0.2968423013       -0.7923079151
 C         -0.2323246640       -2.4937184592       -0.1142900017
 C          0.6664910123       -1.8765641041        0.9287969764
 C          0.2183332106       -1.8344730136        2.2475090899
 C          0.9851945297       -1.2505840594        3.2362740124
 C          2.2103618050       -0.6839538802        2.9285564855
 C          2.6662827474       -0.7223841246        1.6168193363
 C          1.8999107553       -1.3239328670        0.6269030399
 H          2.2828133171       -1.3442947910       -0.3787292990
 N          3.9111365634       -0.1727977746        1.2810451800
 S          4.1670760447        0.5696181489       -0.1906533391
 O          4.2603315317       -0.4158119391       -1.2389803484
 O          5.3623098574        1.3606377610        0.0252129829
 C          2.7961500524        1.6712589303       -0.4854899540
 C          2.3522580406        2.4783895735        0.5420953692
 C          1.3390206438        3.3872645528        0.2886623626
 C          0.7969116139        3.4817371299       -0.9830461347
 C          1.2536906220        2.6642299303       -2.0032314763
 C          2.2612277898        1.7478505646       -1.7533639506
 H          2.6358547981        1.0844709464       -2.5166853571
 H          0.8227601046        2.7294625028       -2.9898874021
 H          0.0081766975        4.1920318171       -1.1771558881
 H          0.9735292173        4.0186888558        1.0831959972
 H          2.7941902204        2.3920053674        1.5217576895
 H          4.3865000240        0.3077601049        2.0303175067
 H          2.8098727982       -0.2209618528        3.6975504721
 H          0.6254154509       -1.2281977360        4.2539399431
 H         -0.7458663595       -2.2658088071        2.4820451454
 H         -0.5381481054       -3.4890492377        0.2381874457
 C          0.4166664131       -2.6347446319       -1.4741469105
 C          1.3745248801       -3.7580418801       -1.7292999006
 C          0.0169377481       -3.7708515754       -2.3643206821
 H         -0.0583613074       -3.5920469799       -3.4264606417
 H         -0.7193131345       -4.4649967032       -1.9853839173
 H          2.2367182565       -3.5683181420       -2.3509296891
 H          1.5617179713       -4.4469946450       -0.9193322016
 H          0.6169351856       -1.6801734950       -1.9470152526
