  62
        -98.93896383
 C          2.3464433729        0.7727923463        0.6083135574
 C          3.4314238486        0.9899075354       -0.2764848270
 C          4.6725176650        0.2635361411        0.0355315746
 C          4.7195735881       -0.5455019484        1.1083064026
 C          5.8971314958       -1.3893595632        1.4997493168
 C          5.8154172989       -2.7854905715        0.8664685976
 C          5.5247451647       -2.7674272021       -0.6342935895
 H          5.5199789491       -3.8045265350       -0.9767137134
 H          4.5197138476       -2.3712206730       -0.7976005778
 C          6.5299482175       -1.9586072205       -1.4660744966
 H          7.4446088578       -1.8029769807       -0.8929207347
 H          6.7971421036       -2.5381026682       -2.3522324728
 C          6.0047553329       -0.6087965146       -1.9581945818
 H          6.7032487834       -0.2243822601       -2.7061978715
 H          5.0401664904       -0.7492036664       -2.4523242933
 C          5.8423221832        0.4746558028       -0.8847099389
 H          6.7680466868        0.5699188130       -0.3139912492
 H          5.6538148648        1.4229018117       -1.3961584893
 H          5.0181127157       -3.3439816498        1.3624302791
 H          6.7585316990       -3.3032801447        1.0504147402
 H          6.8134449664       -0.8911209659        1.1892875508
 H          5.8997869197       -1.4922155244        2.5861699052
 O          3.6631682829       -0.7231806056        1.9423917444
 C          2.4617201261       -0.0779076842        1.7129960022
 O          1.5802261607       -0.3326478509        2.5596031997
 H         -1.4172817301        0.2789861775        0.8409764169
 C         -1.1033108305        0.2203342536       -0.1913645474
 C          0.1253639452        0.7370086389       -0.5749615862
 C          0.5114905865        0.6286006328       -1.9070342341
 C         -0.3206986115        0.0191115615       -2.8278483607
 C         -1.5580944479       -0.4700684637       -2.4476941665
 C         -1.9505514113       -0.3706530217       -1.1182125731
 N         -3.1930402769       -0.8684679482       -0.6938532513
 S         -4.0169758285       -0.0147566285        0.5084159283
 O         -3.8999743910        1.4064768942        0.2723579169
 O         -3.5784863478       -0.4856825296        1.7984746286
 C         -5.6901094928       -0.5537875516        0.2077751164
 C         -6.1180388590       -1.7446869838        0.7635161401
 C         -7.4097248887       -2.1768486842        0.5077340959
 C         -8.2466847224       -1.4162623526       -0.2953694580
 C         -7.8035234199       -0.2226283556       -0.8450529111
 C         -6.5126284333        0.2151357444       -0.5940513544
 H         -6.1283708489        1.1410033053       -0.9910153481
 H         -8.4576087040        0.3679916550       -1.4659960501
 H         -9.2519132936       -1.7544094276       -0.4912482329
 H         -7.7587423994       -3.1024724561        0.9361916526
 H         -5.4349825821       -2.2958742892        1.3888314917
 H         -3.7999719071       -1.1213818431       -1.4616681859
 H         -2.2129596020       -0.9304825349       -3.1720193154
 H         -0.0088082376       -0.0617679766       -3.8583058546
 H          1.4676101992        1.0266657335       -2.2097385527
 C          0.9885764182        1.4368913510        0.4481144966
 H          0.4901356106        1.3288535023        1.4218266178
 C          1.0722245983        2.9167471106        0.1199096341
 C         -0.1490800229        3.7628953617        0.3116877860
 C          1.0255057837        3.9208367963        1.2294550752
 H          1.6303775710        4.8111732513        1.1446211989
 H          0.9370235714        3.5468539508        2.2395634578
 H         -0.3497087185        4.5453040298       -0.4042195079
 H         -1.0389164541        3.2813593628        0.6922371485
 H          1.7092311410        3.1338185759       -0.7271283120
 O          3.3939586045        1.7455422133       -1.2836824376
