  62
        -98.93809470
 C         -2.5413852966       -0.3038285019        0.1159199857
 C         -2.3261917256        0.6596817787        1.1353692821
 C         -2.1375735612        2.0536301048        0.7117916362
 C         -2.2030512811        2.3549436225       -0.5956938713
 C         -2.0610330744        3.7039386187       -1.2544349052
 C         -0.9220480996        4.6091630322       -0.7645805618
 C          0.3448226746        3.8754339958       -0.2989421761
 H          0.3155382669        2.8269647952       -0.6052226966
 H          1.2119284725        4.3238210658       -0.7892878239
 C          0.5652887930        3.9676667546        1.2134094231
 H          1.6180408509        3.7626066117        1.4227960693
 H          0.3589502541        4.9913010495        1.5351631211
 C         -0.2625818361        3.0022735207        2.0599012417
 H          0.0820309534        1.9777793787        1.8917211667
 H         -0.0829493661        3.2355932818        3.1122141642
 C         -1.7776443088        3.0251087194        1.7984199221
 H         -2.2820693399        2.6709497598        2.7014913045
 H         -2.1263144924        4.0301196483        1.5742958237
 H         -0.6713501582        5.2735911686       -1.5934919805
 H         -1.2828839076        5.2410227638        0.0463892499
 H         -1.9224629441        3.4865499752       -2.3163690640
 H         -3.0112318069        4.2371261908       -1.1533756916
 O         -2.4632466140        1.4101260150       -1.5393531613
 C         -2.5661470353        0.0640741193       -1.2278692739
 O         -2.6916633627       -0.6649714336       -2.2355703217
 O         -2.2905829978        0.3591078271        2.3585266226
 C         -2.5548534095       -1.7553034627        0.5749642770
 C         -1.1107808663       -2.1967098273        0.6216045250
 C         -0.4980028870       -2.5894831787        1.8050262923
 C          0.8643506373       -2.8346902217        1.8474139360
 C          1.6466035018       -2.6576706198        0.7192672823
 C          1.0374068032       -2.2774139611       -0.4685015488
 C         -0.3313997174       -2.0847009948       -0.5214919032
 H         -0.7869168912       -1.7731148686       -1.4507590573
 N          1.8500893071       -1.9648240539       -1.5968564883
 S          2.2115999105       -0.3104168281       -1.5720226744
 O          1.0557404074        0.4872039867       -1.2252188390
 O          2.8246188326       -0.0199073504       -2.8504048883
 C          3.4246056430       -0.2211102218       -0.2758807607
 C          4.6932804571       -0.7077459768       -0.5241870619
 C          5.6299691122       -0.6811024876        0.4965172969
 C          5.2821547745       -0.1745417350        1.7402435270
 C          4.0041807854        0.3108920511        1.9725443840
 C          3.0627597120        0.2867237066        0.9555527177
 H          2.0553800600        0.6490798243        1.0903049764
 H          3.7332976116        0.7035402088        2.9394067690
 H          6.0114487863       -0.1571049034        2.5346624122
 H          6.6250401053       -1.0567378070        0.3208195791
 H          4.9164169257       -1.0882795140       -1.5070100192
 H          1.3767686441       -2.1566821462       -2.4710040141
 H          2.7144395417       -2.8010033944        0.7492944623
 H          1.3262423255       -3.1349040185        2.7751505066
 H         -1.0914785783       -2.6663300742        2.7038870614
 H         -2.9360721145       -1.7397623837        1.6049659070
 C         -3.4139343449       -2.6923211319       -0.2442476491
 C         -3.8636369033       -3.9824588161        0.3721248364
 C         -4.8524439546       -2.8832709661        0.1282311853
 H         -5.5752267862       -3.0006436390       -0.6648599305
 H         -5.2252566647       -2.3332239193        0.9798313965
 H         -3.9075428255       -4.8615496849       -0.2520592313
 H         -3.5680924834       -4.1797623334        1.3912895301
 H         -3.1724036039       -2.6937629989       -1.2987991572
