  62
        -98.93735258
 C          1.9047977393        1.3968962802        0.0185502531
 C          2.5228719270        0.6656791235        1.0599437118
 C          3.7497226125       -0.0578695736        0.7024555967
 C          4.2103743178       -0.0010014892       -0.5603550542
 C          5.4757082455       -0.6262731415       -1.0858296976
 C          5.5283742351       -2.1662997133       -1.0894157819
 C          6.1791562038       -2.7803232487        0.1563541448
 H          6.7968761363       -3.6263758532       -0.1515952509
 H          6.8529378513       -2.0455853134        0.5988379101
 C          5.2142063231       -3.2991335658        1.2267104869
 H          5.7882511239       -3.4718011179        2.1396177323
 H          4.8099206959       -4.2621213108        0.9059992876
 C          4.0283488794       -2.3908945214        1.5521294052
 H          3.2892470145       -2.4527955168        0.7491891977
 H          3.5406167585       -2.7760090386        2.4500997439
 C          4.3918511447       -0.9076126571        1.7603611943
 H          4.0028805892       -0.5602990903        2.7196555836
 H          5.4722861041       -0.7725249213        1.7581417211
 H          4.5241353391       -2.5649984570       -1.2322395141
 H          6.1176576759       -2.4593953080       -1.9597762077
 H          6.3215588915       -0.2372383305       -0.5143858786
 H          5.5719457771       -0.2653599985       -2.1118802648
 O          3.5719125112        0.6960286867       -1.5392545950
 C          2.3988021088        1.3924208387       -1.2861308482
 O          1.9122737100        1.9549010841       -2.2841834411
 O          2.0703669406        0.6204439256        2.2364580974
 C          0.6316890580        2.1675480385        0.3214678858
 C         -0.5218510433        1.5495278570       -0.4299471746
 C         -1.3624722462        2.2583313701       -1.2766219594
 C         -2.3897828868        1.6128470575       -1.9448559560
 C         -2.6085085196        0.2588302100       -1.7751088615
 C         -1.7856722685       -0.4558053160       -0.9122837453
 C         -0.7574537512        0.1915052440       -0.2461437562
 H         -0.1145346600       -0.3664738267        0.4233901221
 N         -2.0147968014       -1.8277687048       -0.7122997443
 S         -3.5952782770       -2.3273003990       -0.4789590828
 O         -3.4987584925       -3.5290649861        0.3197985604
 O         -4.2510416943       -2.4729566680       -1.7546764353
 C         -4.3684089549       -1.0150968996        0.4508370774
 C         -5.4518894792       -0.3422291534       -0.0757498250
 C         -6.0140728495        0.6955068276        0.6505350965
 C         -5.4825803476        1.0431201077        1.8824802321
 C         -4.3958869524        0.3546136834        2.4000584023
 C         -3.8313674810       -0.6850483698        1.6795238580
 H         -2.9880181345       -1.2412084322        2.0571835543
 H         -3.9830151341        0.6255505050        3.3585863807
 H         -5.9166139640        1.8547882459        2.4446323223
 H         -6.8603143425        1.2311038670        0.2516509902
 H         -5.8303469050       -0.6427950937       -1.0391205675
 H         -1.3916293291       -2.2548969083       -0.0433188363
 H         -3.3932955545       -0.2595613075       -2.3016765588
 H         -3.0275411214        2.1731228021       -2.6111274069
 H         -1.2071651264        3.3138186584       -1.4247650819
 H          0.4531342762        2.0173263565        1.3964783147
 C          0.8155458248        3.6465812636        0.0611086995
 C         -0.0313141060        4.6451557252        0.7903349650
 C          1.4200383354        4.5009256634        1.1334913188
 H          2.1018182589        5.2860816254        0.8429696375
 H          1.6825187486        4.0192958896        2.0642142860
 H         -0.3467840939        5.5344663224        0.2662666471
 H         -0.7577763040        4.2648372458        1.4921299638
 H          1.0958985557        3.8600692745       -0.9638140305
