  62
        -98.94184797
 C          1.1604107780        1.4955117028        0.5233439511
 C          2.1083351944        1.1797176860       -0.4757964759
 C          3.1621488176        0.2116462847       -0.1099794858
 C          3.1565406674       -0.3183365260        1.1271001887
 C          4.0917332602       -1.3492532707        1.6999868618
 C          3.7691432277       -2.7702330892        1.2081665167
 C          3.4453552830       -2.8803660213       -0.2798612073
 H          3.1182112251       -3.9062462014       -0.4715877174
 H          2.5947886500       -2.2343672072       -0.5097065960
 C          4.6043467632       -2.5738490287       -1.2259022203
 H          5.4146865844       -3.2813418223       -1.0345015407
 H          4.2449098285       -2.7474611124       -2.2434941820
 C          5.1751842325       -1.1563309020       -1.1567132063
 H          5.7984727898       -1.0308521177       -0.2755227848
 H          5.8316784441       -1.0291612942       -2.0226531388
 C          4.1356746648       -0.0424883184       -1.2352036997
 H          4.6572620697        0.9087139107       -1.3984367085
 H          3.5199511799       -0.1917983376       -2.1297213941
 H          2.8939776351       -3.1272150923        1.7571732242
 H          4.6111010410       -3.4212155977        1.4505443122
 H          5.1211336861       -1.0837762013        1.4782744449
 H          3.9658568675       -1.3212465888        2.7847093351
 O          2.2109586751        0.0047593852        2.0548788262
 C          1.1865450703        0.8871781568        1.7762843679
 O          0.3723410994        1.0486976209        2.7099700818
 H         -0.4982854050       -0.1333522870       -0.2583735954
 C         -1.0332783760        0.5037736809       -0.9446166787
 C         -0.8595624349        1.8784247651       -0.8785392299
 C         -1.5346397017        2.6736713435       -1.7968895438
 C         -2.3479171572        2.0953742930       -2.7563236331
 C         -2.5227332250        0.7241116478       -2.8121775010
 C         -1.8537855198       -0.0793502060       -1.8959529337
 N         -1.9869805853       -1.4752102841       -1.9136183170
 S         -1.9405730012       -2.3437101225       -0.4864339005
 O         -0.5999323128       -2.3861725943        0.0406243881
 O         -2.5213574697       -3.6228763869       -0.8362085093
 C         -3.0424835077       -1.4704046155        0.6115782777
 C         -4.3954727793       -1.5512871113        0.3392960786
 C         -5.2862990677       -0.8510058538        1.1347417272
 C         -4.8117330425       -0.0767786290        2.1833779447
 C         -3.4531628219       -0.0096566172        2.4470552337
 C         -2.5564692496       -0.7127014623        1.6566998179
 H         -1.4957196126       -0.6695858253        1.8497210419
 H         -3.0715622993        0.5886751753        3.2592719239
 H         -5.5029458205        0.4745704049        2.8010449058
 H         -6.3441371330       -0.9076278104        0.9351050882
 H         -4.7245337961       -2.1736351119       -0.4769583230
 H         -2.6754921634       -1.8354467005       -2.5571893423
 H         -3.1583689408        0.2775352431       -3.5610682047
 H         -2.8595529164        2.7234952221       -3.4695376077
 H         -1.4174327028        3.7445947136       -1.7657213430
 C          0.0156477878        2.4416785788        0.2171587002
 H         -0.5913555495        2.4869931286        1.1346796939
 C          0.5362535684        3.8311232120       -0.0906089236
 C         -0.2509918552        5.0426008442        0.3069050960
 C          1.0063680598        4.6919395524        1.0422783422
 H          1.8826508965        5.3052049133        0.8954543559
 H          0.9212567789        4.2856354505        2.0400315234
 H         -0.2365412822        5.9031417132       -0.3449270404
 H         -1.1910190393        4.8861208545        0.8142161453
 H          1.1029549893        3.8655564167       -1.0136547445
 O          2.0792478441        1.6735671450       -1.6342937085
