  62
        -98.94964855
 C          1.6835033494        1.2263171295        0.3377156002
 C          1.3306413696        0.1695227796       -0.5335446300
 C          1.8841795694       -1.1462123705       -0.2017004800
 C          2.6332464490       -1.2940593107        0.9056809703
 C          3.2295788487       -2.5821656708        1.4051219004
 C          4.5633513389       -2.9575293908        0.7443904808
 C          4.4615177194       -3.4380209806       -0.7037509893
 H          5.4291173995       -3.8706802407       -0.9656071890
 H          3.7196888194       -4.2346043106       -0.7680149396
 C          4.1236611799       -2.3334243805       -1.7145266393
 H          4.3088139298       -1.3571032506       -1.2609472391
 H          4.7856509202       -2.4167264005       -2.5792713091
 C          2.6874841200       -2.3711116103       -2.2365880398
 H          2.5473528804       -1.5257296702       -2.9145910998
 H          2.5280528402       -3.2902190003       -2.8044957100
 C          1.6162996997       -2.2826248804       -1.1413480302
 H          0.6489069198       -2.0996640402       -1.6156821005
 H          1.5567610594       -3.2216684504       -0.5909481303
 H          5.0061401186       -3.7586913409        1.3407042909
 H          5.2324239290       -2.0955429808        0.7969771211
 H          3.3994450283       -2.4491113409        2.4760389504
 H          2.5099110587       -3.3905571007        1.2698928900
 O          2.9253400388       -0.2584626508        1.7377612505
 C          2.4609924389        1.0204002993        1.4751186205
 O          2.8016453887        1.8765014792        2.3190997307
 H         -0.4966046711        1.1799014195        1.6313517994
 C         -1.0491236408        1.7480020196        0.8967189893
 C         -0.3707300804        2.5647157697        0.0009513296
 C         -1.1119224100        3.2931740298       -0.9213904106
 C         -2.4910288600        3.1788448799       -0.9612907511
 C         -3.1564220104        2.3225726399       -0.1030047314
 C         -2.4242266608        1.5988244997        0.8307625987
 N         -3.0462035912        0.6935981797        1.7170254984
 S         -2.6343927812       -0.9247941703        1.5615986384
 O         -3.4606113916       -1.6139475504        2.5304581980
 O         -1.2109326913       -1.0909682105        1.7030689789
 C         -3.1735388307       -1.3588210701       -0.0832191418
 C         -4.3926508407       -1.9931430600       -0.2311747324
 C         -4.8547841002       -2.2731288398       -1.5065868725
 C         -4.0980299098       -1.9054590098       -2.6092340122
 C         -2.8798015298       -1.2655946499       -2.4431050017
 C         -2.4078976702       -0.9851775001       -1.1693839015
 H         -1.4598201503       -0.4908998301       -1.0218548111
 H         -2.2844574895       -0.9752324898       -3.2940110915
 H         -4.4580449294       -2.1187837796       -3.6033645624
 H         -5.8014278302       -2.7724643898       -1.6364450929
 H         -4.9439756110       -2.2609669101        0.6557763874
 H         -4.0542086412        0.7734212398        1.7361931681
 H         -4.2291553504        2.2113492100       -0.1527585918
 H         -3.0530726897        3.7497037700       -1.6844452813
 H         -0.6079161997        3.9462753699       -1.6149743603
 C          1.1360776896        2.6192319095        0.0849918401
 H          1.4132162693        3.2220727494        0.9626333003
 C          1.7825458201        3.2199794996       -1.1470648496
 C          2.0083332302        4.6982912996       -1.2427934493
 C          3.1697199101        3.7746192195       -1.0349949890
 H          3.8576546004        3.6145403095       -1.8515875588
 H          3.6354611397        3.7444867594       -0.0603164488
 H          1.9031595306        5.1754529797       -2.2054956593
 H          1.6935892600        5.3079639896       -0.4093139594
 H          1.5321127804        2.6781381097       -2.0519285097
 O          0.5829522300        0.3181194798       -1.5362217403
