  62
        -98.93908789
 C         -1.8821236896       -0.1628430170       -0.0485935738
 C         -2.9014625067       -0.9890033519        0.4769532722
 C         -4.2320282322       -0.3770150701        0.6355834240
 C         -4.4125649481        0.9090534041        0.2806304561
 C         -5.6307026183        1.8047641908        0.3703958333
 C         -7.0178942588        1.2168312298        0.6160654306
 C         -7.5632561875        0.3641034433       -0.5289159416
 H         -7.7770717509        1.0183158492       -1.3779787691
 H         -8.5074837310       -0.0789791953       -0.2048828650
 C         -6.6379308371       -0.7447443520       -1.0238210697
 H         -5.7310173031       -0.3053460919       -1.4444214682
 H         -7.1484329253       -1.2674952890       -1.8373066628
 C         -6.2460684681       -1.7855645536        0.0231598729
 H         -5.7257076073       -2.5943446185       -0.4968477901
 H         -7.1450378809       -2.2052741996        0.4786882728
 C         -5.3174918464       -1.2827145749        1.1422131498
 H         -4.8134819707       -2.1506189673        1.5773318025
 H         -5.8810589518       -0.8003510382        1.9371990011
 H         -7.6956117623        2.0648833706        0.7469951909
 H         -7.0310088204        0.6579051155        1.5470385955
 H         -5.6453813328        2.3794062714       -0.5611957536
 H         -5.4124484939        2.5218902351        1.1695738497
 O         -3.3927773207        1.6698091445       -0.2166287635
 C         -2.1155152029        1.1650619169       -0.3995759467
 O         -1.3034069451        1.9835365432       -0.8704440438
 O         -2.7070936718       -2.1880371976        0.8135705391
 C         -0.4916038894       -0.7418234349       -0.2393918386
 C          0.5088008479        0.0668713052        0.5473412465
 C          0.2895019750        0.2482114233        1.9116417394
 C          1.1556384190        1.0070611773        2.6726600756
 C          2.2686064396        1.5920068798        2.0929867035
 C          2.5017208750        1.4119330675        0.7358949698
 C          1.6282454056        0.6463415043       -0.0270275240
 H          1.8271386014        0.5407135607       -1.0797263831
 N          3.6154730591        2.0063321561        0.1207321430
 S          4.5686296264        1.1256140906       -0.9318719484
 O          5.7925043709        1.8892324695       -1.0359734429
 O          3.8661904143        0.8767978498       -2.1640255174
 C          4.8773053048       -0.4035340369       -0.0680208089
 C          4.1171700725       -1.5188433270       -0.3542498406
 C          4.3253824952       -2.6760008845        0.3799529681
 C          5.2828331228       -2.6972050865        1.3820128139
 C          6.0420037485       -1.5689799559        1.6542085894
 C          5.8360714387       -0.4084973184        0.9266790969
 H          6.4119667589        0.4862416352        1.0992210005
 H          6.7894667929       -1.5904905482        2.4308199414
 H          5.4396458726       -3.5995589655        1.9517064896
 H          3.7376235307       -3.5549084353        0.1678626731
 H          3.3853768161       -1.4651445937       -1.1430464716
 H          4.1865834313        2.5609575845        0.7415125652
 H          2.9428268003        2.1936784373        2.6833668324
 H          0.9665598258        1.1448483900        3.7265571118
 H         -0.5822903426       -0.2059333563        2.3627521197
 H         -0.5366663265       -1.7521955419        0.1934299591
 C         -0.1672472820       -0.8586760365       -1.7130485872
 C          0.7573776160       -1.9330281343       -2.1988372784
 C         -0.7107832452       -2.0210987038       -2.4865398798
 H         -1.0530649041       -1.8532014537       -3.4967105270
 H         -1.2953500916       -2.7483304147       -1.9420993032
 H          1.4307771391       -1.7039278714       -3.0118610175
 H          1.1616581562       -2.6108995895       -1.4621121795
 H         -0.1432828595        0.1021419643       -2.2158928536
