  62
        -98.94477431
 C          1.9758282372        0.4431021035       -0.0825806273
 C          2.9898996365        0.6352502389        0.8937390647
 C          4.1503415174       -0.2602033685        0.8200796839
 C          4.1838690039       -1.2112770928       -0.1306014663
 C          5.3218972381       -2.1633213862       -0.3544994387
 C          6.3329097963       -1.5949348677       -1.3601931609
 C          6.7635814769       -0.1596129020       -1.0581789253
 H          5.9041568102        0.5034116583       -1.1807848554
 H          7.4991647831        0.1248229470       -1.8136718240
 C          7.3626572849        0.0423106923        0.3406701596
 H          8.2622463874        0.6549035232        0.2511645852
 H          7.6662767353       -0.9192315328        0.7562094032
 C          6.4370612071        0.7523514905        1.3303931799
 H          6.0564363292        1.6724801936        0.8800033842
 H          7.0285561517        1.0365145120        2.2047856635
 C          5.2426845833       -0.0679044376        1.8341040345
 H          4.7878989977        0.4816657644        2.6634217441
 H          5.5910861829       -1.0315402892        2.2116090301
 H          5.8807736326       -1.6149247470       -2.3545484297
 H          7.2095312965       -2.2451725208       -1.3728730493
 H          5.8124283356       -2.3638301408        0.5961216303
 H          4.9168597153       -3.0973385833       -0.7477994534
 O          3.1887165104       -1.3811739303       -1.0348711960
 C          2.0673689744       -0.5636264097       -1.0435672354
 O          1.2579023122       -0.8501575812       -1.9492845397
 H         -0.7384461852       -0.6553323502       -0.9678296765
 C         -1.0757110771       -0.3244149990        0.0029051132
 C         -0.3969397378        0.7007508031        0.6467048040
 C         -0.8304883374        1.0967764598        1.9066589211
 C         -1.9109940115        0.4760362247        2.5094793687
 C         -2.5821454235       -0.5485979687        1.8673279393
 C         -2.1544754471       -0.9520859017        0.6084635848
 N         -2.8362340618       -1.9868934213       -0.0556642839
 S         -4.5053916664       -1.8788426004       -0.1132165613
 O         -5.0652780791       -2.4088936755        1.1057732691
 O         -4.8960122429       -2.5563557520       -1.3297812471
 C         -4.8544646880       -0.1316641232       -0.2220509007
 C         -5.6112763551        0.4799629036        0.7562675722
 C         -5.8393168024        1.8442980154        0.6728009853
 C         -5.3039682596        2.5701993146       -0.3794804963
 C         -4.5483199543        1.9402507596       -1.3565215594
 C         -4.3195454176        0.5763725620       -1.2802012836
 H         -3.7374477582        0.0589129573       -2.0260619418
 H         -4.1324685488        2.5064906753       -2.1743280743
 H         -5.4755138012        3.6332284738       -0.4405431604
 H         -6.4285313996        2.3360212560        1.4299220174
 H         -6.0026814865       -0.1222794348        1.5598938565
 H         -2.4477720215       -2.2095268219       -0.9605201611
 H         -3.4214206856       -1.0495433531        2.3223630886
 H         -2.2339511149        0.7925808551        3.4893446235
 H         -0.3030977258        1.8877975288        2.4194230947
 C          0.7799580348        1.3793549076       -0.0128000886
 H          1.1001145869        2.1992654964        0.6436738312
 C          0.3952684131        1.9639495849       -1.3582692811
 C         -0.4648824922        3.1901196179       -1.3970878108
 C          0.9810163702        3.2760756457       -1.7817069907
 H          1.2337459462        3.4150445399       -2.8222827009
 H          1.6631194122        3.7627041398       -1.0998161290
 H         -0.7658815877        3.6191323048       -0.4536614539
 H         -1.2072238681        3.2717998126       -2.1756687677
 H          0.2459176959        1.2180598328       -2.1277107834
 O          2.9264600551        1.5236654379        1.7844478571
