  62
        -98.94511746
 C         -0.9528726401       -1.2350725494        0.4687141415
 C         -1.4887230001       -0.0745537090        1.0799254507
 C         -2.2504366298        0.8289304906        0.2080847099
 C         -2.3386250895        0.5511594297       -1.1051906299
 C         -3.0968161192        1.3747884891       -2.1054293007
 C         -4.5428697893        0.8824837392       -2.2555664606
 C         -5.2694691796        0.6927225902       -0.9239609706
 H         -4.7944428298       -0.1226574795       -0.3736301000
 H         -6.2890338996        0.3751057901       -1.1524646906
 C         -5.3091853796        1.9463260008       -0.0389288215
 H         -6.3197207597        2.0615658212        0.3584390282
 H         -5.0947470094        2.8304287703       -0.6403514120
 C         -4.3608750798        1.9059863615        1.1607479287
 H         -4.5082765801        0.9736426519        1.7114808693
 H         -4.6272873199        2.7275606919        1.8308030481
 C         -2.8668823798        2.0452014311        0.8409550189
 H         -2.3393755599        2.1830141916        1.7893589990
 H         -2.7036045095        2.9289783306        0.2198057384
 H         -4.5291423493       -0.0759037012       -2.7798846200
 H         -5.0885673490        1.5989013388       -2.8724191912
 H         -2.5876203190        1.2935234784       -3.0677639005
 H         -3.0874042892        2.4170162993       -1.7908139314
 O         -1.7747029296       -0.5458192208       -1.6673472791
 C         -1.0528792798       -1.4558609603       -0.9074443283
 O         -0.5786125798       -2.3979410109       -1.5689236176
 O         -1.3249433303        0.2016036619        2.2988957205
 C         -0.1000122704       -2.1492710390        1.3333895123
 C          1.2358282997       -2.3331799196        0.6589085227
 C          1.8093422596       -3.5613571199        0.3630324537
 C          3.0149492898       -3.6199229605       -0.3159925160
 C          3.6552054200       -2.4673869908       -0.7320978367
 C          3.0902553201       -1.2320751805       -0.4336849776
 C          1.9118904600       -1.1770652099        0.2877796921
 H          1.4763025100       -0.2162575397        0.5211300214
 N          3.6951799303       -0.0311341909       -0.8358777883
 S          2.7278976606        1.2576724189       -1.2962382894
 O          1.5000670807        0.8312845686       -1.9259335893
 O          3.6021639209        2.0823449683       -2.1059740898
 C          2.3880660904        2.1191325700        0.2239211900
 C          1.0929773704        2.4952702403        0.5187866295
 C          0.8472548502        3.1904402812        1.6920487089
 C          1.8962679301        3.4951242316        2.5452768589
 C          3.1924192801        3.1129455412        2.2332670595
 C          3.4449959902        2.4204544404        1.0602271900
 H          4.4372994803        2.1088554801        0.7802895104
 H          4.0045696900        3.3514416516        2.9008911495
 H          1.6989137400        4.0322944823        3.4594780185
 H         -0.1620277198        3.4800492015        1.9362342685
 H          0.3008206505        2.2221544700       -0.1627489905
 H          4.4934805804       -0.1381095014       -1.4449323581
 H          4.5762582301       -2.5189146013       -1.2926392664
 H          3.4498983397       -4.5804929407       -0.5476801153
 H          1.3016749595       -4.4720963696        0.6351973042
 H          0.0652243195       -1.5650131784        2.2549461120
 C         -0.7631374006       -3.4479093386        1.7624595531
 C         -2.2560235007       -3.5680732484        1.8210668129
 C         -1.4813944906       -4.3459532391        0.8020444535
 H         -1.3910232907       -5.4141430591        0.9366171743
 H         -1.5277373203       -4.0370491198       -0.2300104667
 H         -2.6980060309       -4.0984250077        2.6512318731
 H         -2.8375789605       -2.7231329485        1.4812524022
 H         -0.2137086609       -3.9358540781        2.5618483835
