  62
        -98.93946672
 C         -2.6480717700       -1.2801724992       -0.0702809905
 C         -2.6735270698       -0.1831307388       -0.9646743901
 C         -3.9740839297        0.4850373215       -1.1180885598
 C         -5.0388285198        0.0228023115       -0.4378264299
 C         -6.4039175996        0.6460861818       -0.4547561796
 C         -6.5548709293        1.6785366414        0.6713774608
 C         -5.4033076691        2.6811934611        0.7495120312
 H         -5.6324490289        3.3768004709        1.5598428314
 H         -4.4880317392        2.1541022508        1.0295568209
 C         -5.1571422790        3.4682044616       -0.5453023486
 H         -6.0361234591        3.4078691120       -1.1881199285
 H         -5.0116503888        4.5205585214       -0.2924820682
 C         -3.9225883792        3.0246090416       -1.3324470788
 H         -3.7192854590        3.7776974819       -2.0984609385
 H         -3.0551338391        2.9922317512       -0.6678039689
 C         -4.0360238895        1.6690549219       -2.0412603693
 H         -4.9460874395        1.6431523823       -2.6438348893
 H         -3.1759401496        1.5717668820       -2.7100976394
 H         -6.6095849694        1.1463207910        1.6239155706
 H         -7.4955378792        2.2128450817        0.5263801411
 H         -6.5700297196        1.1191886922       -1.4204846494
 H         -7.1444867498       -0.1429204781       -0.3138026098
 O         -4.9792070799       -1.0486884088        0.3942394197
 C         -3.7838075001       -1.7127141592        0.6138997994
 O         -3.8603125802       -2.6570627095        1.4263009890
 H          1.1657139899       -1.2953847297       -0.7257200107
 C          0.8865284401       -0.7859237100        0.1831410595
 C         -0.3419954199       -1.0421948400        0.7681688494
 C         -0.6724393997       -0.3713488704        1.9433348497
 C          0.1984735905        0.5414913692        2.5050517300
 C          1.4165059605        0.8118156792        1.9053330701
 C          1.7586652203        0.1453287896        0.7374577398
 N          2.9802015304        0.4304917895        0.1023523498
 S          4.3588966004        0.6053043489        1.0591866898
 O          4.4750732703       -0.5091436315        1.9739782394
 O          4.3394409808        1.9136635187        1.6636160103
 C          5.6337681304        0.5324815791       -0.1831086003
 C          5.9081785806        1.6722824793       -0.9149475099
 C          6.8778385005        1.6157360995       -1.9031649799
 C          7.5523060402        0.4274234494       -2.1422042804
 C          7.2666121800       -0.7077165408       -1.3986651109
 C          6.2970282601       -0.6585042210       -0.4092975208
 H          6.0483674999       -1.5136736712        0.1985759289
 H          7.7946690898       -1.6289184209       -1.5853313312
 H          8.3071852202        0.3864445795       -2.9114841805
 H          7.1044049507        2.4963283696       -2.4823141396
 H          5.3645628708        2.5746274593       -0.6887647395
 H          3.1552282102       -0.1844579502       -0.6806489404
 H          2.1034750607        1.5252822789        2.3307668803
 H         -0.0721508893        1.0529458489        3.4170740402
 H         -1.6275501997       -0.5768736703        2.4089111397
 C         -1.3443820202       -2.0140051495        0.1929455191
 H         -1.5687165203       -2.7649530698        0.9640729788
 C         -0.8737039904       -2.7254287392       -1.0575334112
 C          0.0382619894       -3.9094837994       -0.9479498017
 C         -1.3938151407       -4.1001895489       -1.3461867617
 H         -1.6150896908       -4.3630249885       -2.3697029618
 H         -2.0740973208       -4.5342496491       -0.6278267918
 H          0.7998132193       -4.0473630593       -1.7006977218
 H          0.3351628293       -4.2209173199        0.0422693982
 H         -0.7466040903       -2.0540610989       -1.8987104509
 O         -1.6670813798        0.2192860312       -1.6040922600
