  62
        -98.94596751
 C         -1.5744425035       -1.5688874392       -0.3057056113
 C         -1.4263374637       -0.2013531081       -0.6426553014
 C         -2.6748978265        0.5684415143       -0.7451157629
 C         -3.8509574869       -0.0493554782       -0.5333219093
 C         -5.1879757555        0.6324456663       -0.5355732212
 C         -5.5615989881        1.1199788246        0.8717308092
 C         -4.4503590703        1.9030020443        1.5715698164
 H         -3.6079910163        1.2338991590        1.7621320594
 H         -4.8376921378        2.2160917979        2.5436855032
 C         -3.9552005975        3.1329378950        0.7979350768
 H         -3.8680491654        3.9707325554        1.4929239681
 H         -4.6900049176        3.4143705224        0.0426751412
 C         -2.5877060401        2.9580552549        0.1344244402
 H         -1.8669392557        2.5861295145        0.8668207895
 H         -2.2444485556        3.9417861468       -0.1953095595
 C         -2.5544616809        2.0272910418       -1.0837069204
 H         -1.5766336079        2.1392914323       -1.5604290609
 H         -3.3262321137        2.3236306317       -1.7967707539
 H         -5.8052641822        0.2496981150        1.4856817454
 H         -6.4555085879        1.7418255472        0.7956014495
 H         -5.1612916375        1.4721665148       -1.2271459308
 H         -5.9398636269       -0.0821634089       -0.8745414704
 O         -3.9525066613       -1.3704200783       -0.2335980042
 C         -2.8206482535       -2.1575674465       -0.0949309389
 O         -3.0523045760       -3.3443286851        0.2144055263
 H          2.2281418254       -1.3855876562       -0.2656455730
 C          1.7853195282       -1.3272471318        0.7135360648
 C          0.5178654820       -1.8323665024        0.9504351586
 C         -0.0078802571       -1.7459158307        2.2379649350
 C          0.7160692369       -1.1632863711        3.2593011665
 C          1.9746644841       -0.6408252156        3.0150345052
 C          2.5084445304       -0.7250029153        1.7350559416
 N          3.7869243370       -0.2200929211        1.4652572629
 S          4.1818512677        0.4264058150       -0.0199863025
 O          4.3336928761       -0.6225737071       -0.9976867523
 O          5.3774487109        1.2003090481        0.2495715432
 C          2.8731631393        1.5400359340       -0.4966701809
 C          2.4640968442        1.5595202973       -1.8127697045
 C          1.5115148758        2.4837706691       -2.2068102741
 C          0.9830852512        3.3659478247       -1.2796080853
 C          1.3961985554        3.3272576805        0.0421367040
 C          2.3546768592        2.4107434017        0.4397082242
 H          2.6958735959        2.3659880415        1.4615304991
 H          0.9711317072        4.0066310572        0.7639398211
 H          0.2391936876        4.0844916604       -1.5873866519
 H          1.1785565107        2.5051312169       -3.2325891490
 H          2.8916490151        0.8469300592       -2.5004003258
 H          4.2242011287        0.2820098942        2.2232984512
 H          2.5402261176       -0.1768194410        3.8086980892
 H          0.2961901321       -1.1061540262        4.2523311557
 H         -0.9982185904       -2.1410733766        2.4219538426
 C         -0.3393521537       -2.4365994647       -0.1343544216
 H         -0.6966839729       -3.4169468754        0.2113462946
 C          0.3800633392       -2.6155400036       -1.4536835381
 C          1.3136865136       -3.7719294386       -1.6423191897
 C         -0.0059471393       -3.7495326209       -2.3525738000
 H         -0.0160060447       -3.5819064388       -3.4191456836
 H         -0.7845414447       -4.4148249651       -2.0081533270
 H          1.4330381365       -4.4561566698       -0.8156686649
 H          2.2150963593       -3.6176970037       -2.2163383184
 H          0.6373595340       -1.6736625651       -1.9245563542
 O         -0.3151645199        0.3504583484       -0.8445377979
