  62
        -98.93742360
 C          2.4503884803        1.1353329321        0.0027185421
 C          3.4446611621        0.7122153244        0.9228275518
 C          4.4736889188       -0.2138043466        0.4214913032
 C          4.4262099882       -0.6005221188       -0.8647302171
 C          5.3365297093       -1.5666133799       -1.5712845669
 C          4.7611689715       -2.9924327156       -1.5251027989
 C          5.1485277897       -3.8035583301       -0.2893354339
 H          4.5812414766       -4.7365444640       -0.3222518396
 H          6.2079005320       -4.0619772831       -0.3478125014
 C          4.8857170729       -3.1154754371        1.0526307288
 H          3.9095963053       -2.6272276360        1.0308276252
 H          4.8428433122       -3.8883598451        1.8224248001
 C          5.9706140385       -2.0963950508        1.4313395663
 H          6.8268699275       -2.2226378182        0.7691907977
 H          6.3276408669       -2.3064418820        2.4416994037
 C          5.5197669849       -0.6292527810        1.4199444091
 H          5.0896895018       -0.3734536962        2.3933542432
 H          6.3976719292        0.0127110256        1.2902607447
 H          3.6725913244       -2.9169537513       -1.5900427259
 H          5.1036711088       -3.5365755341       -2.4076434421
 H          5.3820337194       -1.2433762744       -2.6134063839
 H          6.3370805319       -1.5321334560       -1.1507462039
 O          3.4568084378       -0.1713764736       -1.7168882273
 C          2.4529180049        0.6948124132       -1.3202000728
 O          1.6555359877        0.9775079819       -2.2385374738
 O          3.4723937223        1.0985310424        2.1220315573
 C          1.4070739718        2.1067296303        0.5291842652
 C          0.0922262315        1.4250906537        0.8265908480
 C         -0.3971994821        1.3640353684        2.1262467583
 C         -1.6155806961        0.7645921616        2.3937389736
 C         -2.3684707471        0.2118360694        1.3734088410
 C         -1.8865456850        0.2634894821        0.0719746958
 C         -0.6678904022        0.8711228936       -0.1938904645
 H         -0.2956178636        0.9026284803       -1.2073641023
 N         -2.6352139437       -0.3149171341       -0.9706108621
 S         -4.2207265431        0.2076514672       -1.1648579092
 O         -4.5398334798       -0.0412159986       -2.5537400876
 O         -4.3897296392        1.5650794873       -0.6992257561
 C         -5.1680326988       -0.9047353925       -0.1463756536
 C         -5.0851452474       -2.2586663561       -0.4064905340
 C         -5.8243067618       -3.1357630366        0.3710569524
 C         -6.6319739074       -2.6469420117        1.3872919304
 C         -6.7072181791       -1.2845749060        1.6333740073
 C         -5.9691410928       -0.4018692241        0.8601205583
 H         -5.9918961763        0.6646877043        1.0172547669
 H         -7.3362608122       -0.9064046863        2.4231148569
 H         -7.2064652165       -3.3321507162        1.9904513945
 H         -5.7685639531       -4.1957916848        0.1823536020
 H         -4.4500729780       -2.5965834667       -1.2083988237
 H         -2.1514673581       -0.2975570457       -1.8576842916
 H         -3.3173914632       -0.2579506986        1.5748412643
 H         -1.9824959093        0.7256654034        3.4079650820
 H          0.1902224985        1.7838187970        2.9298938240
 H          1.8151336110        2.4696565685        1.4820596359
 C          1.1941512240        3.3000048363       -0.3830459344
 C          0.6069565987        4.5545973178        0.1874063737
 C          2.0506830131        4.5170109252       -0.2134033409
 H          2.3578079716        5.0571386527       -1.0964137230
 H          2.7963794544        4.4978725788        0.5679764893
 H         -0.0830971669        5.1213528630       -0.4187979286
 H          0.3735236735        4.5622923954        1.2412994477
 H          0.9144533633        3.0278586217       -1.3927363054
