  62
        -98.94451316
 C          2.6379131082        1.3158353747        0.1244477495
 C          2.5850361025        0.2895825187       -0.8498311378
 C          3.6499793190       -0.7191399513       -0.7697376175
 C          4.6077305121       -0.6136250245        0.1690165579
 C          5.7802072868       -1.5392347789        0.3493767332
 C          5.4667869469       -2.7944620833        1.1747647161
 C          4.6017767397       -3.8379206958        0.4668945348
 H          5.0372158241       -4.0713553244       -0.5051555976
 H          4.6401698754       -4.7483004610        1.0681983512
 C          3.1333161186       -3.4263970359        0.2893551791
 H          2.9018558088       -2.5954588850        0.9600812575
 H          2.4830172379       -4.2559887337        0.5761144290
 C          2.7531071582       -3.0285286944       -1.1370559784
 H          2.8482364570       -3.8943422035       -1.7965140762
 H          1.7033972277       -2.7205735631       -1.1374989743
 C          3.5888644378       -1.8793913656       -1.7165747216
 H          4.5924465875       -2.2294761940       -1.9576047055
 H          3.1069764874       -1.5351160025       -2.6350308882
 H          4.9808930726       -2.4894545140        2.1043333151
 H          6.4202828752       -3.2598613224        1.4345248171
 H          6.1684044659       -1.8319011755       -0.6265604769
 H          6.5489409648       -0.9667084953        0.8727714125
 O          4.6305085982        0.3966627513        1.0781785362
 C          3.6375410220        1.3609188957        1.0990268461
 O          3.7577532631        2.2001313887        2.0137864817
 H         -0.5142843365        1.6944231880       -1.4618564056
 C         -0.6936080357        1.4520757646       -0.4267168917
 C          0.2586793191        1.7632455693        0.5296036849
 C          0.0149175171        1.4085489847        1.8539693361
 C         -1.1563519882        0.7666395710        2.2077014801
 C         -2.1058491640        0.4561509316        1.2487386291
 C         -1.8628876447        0.7876004776       -0.0766109233
 N         -2.8140571940        0.4755044991       -1.0606971571
 S         -3.5717601785       -1.0193475609       -1.0246905249
 O         -2.7382577398       -2.0377753956       -0.4290250713
 O         -4.0027333944       -1.2546669375       -2.3856628908
 C         -5.0074597020       -0.7293463233       -0.0097600236
 C         -5.8150605059        0.3481031269       -0.3175848223
 C         -6.9408644979        0.5833796638        0.4550850247
 C         -7.2412045986       -0.2596987590        1.5146788894
 C         -6.4232142782       -1.3397364888        1.8083434905
 C         -5.2946072530       -1.5797796423        1.0397351954
 H         -4.6264338580       -2.4035549837        1.2354266654
 H         -6.6582522541       -1.9946899275        2.6319393483
 H         -8.1177051615       -0.0739031621        2.1151369230
 H         -7.5790840245        1.4225461689        0.2297451355
 H         -5.5483953436        0.9780463566       -1.1495647103
 H         -2.5180398627        0.7082172248       -1.9976996579
 H         -3.0157409025       -0.0555908094        1.5163039647
 H         -1.3335929390        0.5018981211        3.2391449844
 H          0.7653388518        1.6344504879        2.5994179766
 C          1.5780273285        2.4050769805        0.1765958754
 H          1.8669409702        3.0662992458        1.0043462536
 C          1.5488071504        3.2132895925       -1.1036782116
 C          0.8464329594        4.5367268288       -1.1206984961
 C          2.3425388364        4.4809708047       -1.1841021851
 H          2.8300635209        4.7242615252       -2.1163095834
 H          2.9045783472        4.7737804906       -0.3092552690
 H          0.3904904500        4.8686824388       -0.2003349644
 H          0.3050453568        4.8230957188       -2.0094090397
 H          1.5061872210        2.6018322693       -1.9966260526
 O          1.7094041572        0.2155322444       -1.7521132880
