  62
        -98.93653252
 C          2.1636468507        0.9977970181        0.1483515092
 C          2.6646545555        0.0742299495        1.0914635460
 C          3.0406813752       -1.2607328839        0.5875113381
 C          2.8533474608       -1.5345179798       -0.7173330526
 C          3.1836106560       -2.8025256083       -1.4588465927
 C          4.6882051582       -2.9543659541       -1.7364370643
 C          5.5975778106       -2.6082152335       -0.5602775662
 H          6.6300100461       -2.6471148511       -0.9171897380
 H          5.4013798667       -1.5812980851       -0.2468700881
 C          5.4849139674       -3.5384113872        0.6450984656
 H          6.2459298052       -3.2289139232        1.3658595294
 H          5.7182046053       -4.5587131237        0.3330011549
 C          4.1316800172       -3.5469241511        1.3589220966
 H          4.2729436034       -4.0528641387        2.3185084451
 H          3.3997969825       -4.1309564751        0.8072724830
 C          3.5699175704       -2.1645533839        1.6756423888
 H          2.7439699476       -2.2795945080        2.3883951031
 H          4.3297021923       -1.5816355299        2.2086731627
 H          4.9459701895       -2.2889054400       -2.5638745048
 H          4.8767858868       -3.9802121964       -2.0571326104
 H          2.6550356366       -2.7515179361       -2.4135384037
 H          2.7987458831       -3.6613403914       -0.9166618707
 O          2.3427455361       -0.6170627893       -1.5888593613
 C          1.9757627844        0.6541041756       -1.1900241254
 O          1.5097668551        1.3683750836       -2.0985390897
 O          2.7918933862        0.3467168229        2.3173452478
 C          1.7327416508        2.3765700450        0.6160668859
 C          0.2568110615        2.5475243719        0.3510371363
 C         -0.2963162416        3.6633840069       -0.2622584949
 C         -1.6551598602        3.7207165332       -0.5240704464
 C         -2.4903350908        2.6738718867       -0.1801968993
 C         -1.9491154295        1.5626869328        0.4502631280
 C         -0.5925888000        1.5113347553        0.7197316902
 H         -0.1768855239        0.6334824113        1.2014344931
 N         -2.7962369403        0.4751389043        0.7875290136
 S         -3.1882178281       -0.5267650134       -0.5214420573
 O         -2.2479248663       -1.6290486542       -0.5760757598
 O         -3.3208466586        0.2774718978       -1.7081228047
 C         -4.7880356358       -1.1291640967       -0.0164437735
 C         -4.8977899755       -2.3687842580        0.5820187461
 C         -6.1455683397       -2.8019513977        1.0028929657
 C         -7.2549144508       -1.9901342682        0.8229296754
 C         -7.1283931865       -0.7469231003        0.2209719016
 C         -5.8839163788       -0.3090662144       -0.2020953441
 H         -5.7380622356        0.6442681346       -0.6822917639
 H         -7.9935538597       -0.1191604983        0.0807706296
 H         -8.2244597835       -2.3294402286        1.1517464675
 H         -6.2465586189       -3.7688692685        1.4690355843
 H         -4.0095961657       -2.9695806724        0.6938468432
 H         -2.3664258025       -0.1169748700        1.4874554551
 H         -3.5434633751        2.6962199398       -0.4059329647
 H         -2.0660524569        4.5907087497       -1.0133437870
 H          0.3398489786        4.4834203512       -0.5527289642
 H          1.8931660031        2.3815111853        1.7046655532
 C          2.5935299489        3.4515789539       -0.0115487835
 C          2.8171390738        4.7510996513        0.7010019932
 C          3.9303110897        3.7540424034        0.5941689179
 H          4.7575309346        3.9693064288       -0.0652684990
 H          4.2097780871        3.1999666315        1.4784080574
 H          2.8831934884        5.6552351928        0.1150088923
 H          2.3446343659        4.8807114059        1.6627671375
 H          2.5192992491        3.4626236102       -1.0932633289
