  62
        -98.92953412
 C          2.4954761514        1.1409503797       -0.1456867012
 C          2.6267536813       -0.2573333902        0.0184458801
 C          3.9795968112       -0.7659952000        0.3362182206
 C          4.9878437213        0.1110623300        0.4916146897
 C          6.4388731913       -0.1690410498        0.7805831900
 C          7.2010314412       -0.6817523011       -0.4515412596
 C          6.4675687711       -1.7475608118       -1.2611411585
 H          7.0617770010       -1.9521098427       -2.1556422583
 H          5.5082293911       -1.3476792020       -1.5943482689
 C          6.2412151610       -3.0726659011       -0.5371967073
 H          7.2060056709       -3.4823661809       -0.2300047569
 H          5.8015943109       -3.7652250817       -1.2594820966
 C          5.3232829110       -3.0196277398        0.6864150327
 H          5.8439174511       -2.6198995791        1.5525263023
 H          5.0544891609       -4.0502629096        0.9360134037
 C          4.0128403111       -2.2697281699        0.4680845420
 H          3.3327704511       -2.5048510090        1.2960040023
 H          3.5190732010       -2.6645405007       -0.4272866376
 H          8.1661571512       -1.0705771909       -0.1224569392
 H          7.3874464113        0.1690286683       -1.1116206804
 H          6.5276024512       -0.8657815691        1.6087759606
 H          6.8827544714        0.7783605704        1.0947025191
 O          4.8043886014        1.4570352099        0.3619883885
 C          3.5756069815        2.0032459097        0.0534728980
 O          3.5662604716        3.2495763097       -0.0069631732
 O          1.6713683812       -1.0680440102       -0.0979883291
 C          1.1599192015        1.7917820995       -0.4608998918
 C          0.0834111514        1.2209964704        0.4306867388
 C          0.2530188915        1.3113409917        1.8101517887
 C         -0.7020846386        0.8156247327        2.6755957592
 C         -1.8543358986        0.2260635523        2.1860423498
 C         -2.0391942387        0.1401704410        0.8137935599
 C         -1.0768285387        0.6411362601       -0.0556127906
 H         -1.2273442687        0.5475093291       -1.1198445706
 N         -3.2059851588       -0.4635927793        0.3117385605
 S         -4.6610989087       -0.0506131785        1.0642522301
 O         -4.6977699386        1.3717075018        1.3217390387
 O         -4.8407191188       -0.9019193174        2.2139271009
 C         -5.8442867588       -0.4834592296       -0.1966367195
 C         -6.3247115387        0.5027717797       -1.0372663504
 C         -7.2308604087        0.1567901188       -2.0273026901
 C         -7.6366006789       -1.1625712313       -2.1607734388
 C         -7.1450325690       -2.1413758705       -1.3096849879
 C         -6.2397429589       -1.8022836296       -0.3167482782
 H         -5.8389518590       -2.5265954790        0.3729830925
 H         -7.4650851291       -3.1653802606       -1.4154780869
 H         -8.3429077989       -1.4288942919       -2.9311789585
 H         -7.6170622187        0.9158652982       -2.6884253308
 H         -5.9890977686        1.5168845098       -0.8902001214
 H         -3.2731969388       -0.3922322903       -0.6942207396
 H         -2.6117101287       -0.1620383470        2.8483376102
 H         -0.5513118286        0.8884782837        3.7426742591
 H          1.1536884415        1.7716074820        2.1955269982
 H          1.2925312816        2.8497700497       -0.1781852928
 C          0.7951404914        1.7858888481       -1.9382338218
 C          1.8559119514        1.7197340270       -2.9953638317
 C          0.9274024913        0.5622212573       -2.7929377606
 H          0.1730039912        0.3770946467       -3.5440397504
 H          1.3083781212       -0.3313538623       -2.3251556298
 H          1.7371826514        2.3298009862       -3.8782877523
 H          2.8811654414        1.6194300572       -2.6696848017
 H         -0.0465810785        2.4394581480       -2.1476615424
