  62
        -98.93722938
 C         -1.8034402664       -1.1430508263        0.2701088181
 C         -2.3885170458       -0.1154589225        1.0495645428
 C         -3.8000988166        0.2208924925        0.7813264849
 C         -4.4555786105       -0.4645816408       -0.1736096663
 C         -5.8727461049       -0.2854997473       -0.6501231409
 C         -6.0447949645        0.9477147077       -1.5505906095
 C         -5.3511976228        2.2108597813       -1.0476654143
 H         -5.4631822875        2.9798979943       -1.8166235549
 H         -4.2824958763        2.0154316999       -0.9401042732
 C         -5.8982751657        2.7763813499        0.2609352349
 H         -6.9616876385        2.9948029945        0.1403927063
 H         -5.3837444603        3.7232734465        0.4442049547
 C         -5.7196649359        1.8943410724        1.4988692029
 H         -6.4552683759        1.0948216097        1.5226327507
 H         -5.9139978882        2.5204488802        2.3746643782
 C         -4.3167223394        1.3219644837        1.6758047003
 H         -4.2232631730        0.9370483568        2.6986860609
 H         -3.5849157655        2.1356602498        1.6094708047
 H         -7.1121928414        1.1396271777       -1.6720669192
 H         -5.6300772857        0.7095216940       -2.5330858789
 H         -6.5497943486       -0.2427824470        0.1977842776
 H         -6.1216992973       -1.1767122680       -1.2304319408
 O         -3.8546643666       -1.4507198170       -0.8956737568
 C         -2.5339154470       -1.8173302724       -0.7080582494
 O         -2.1599344000       -2.7402793534       -1.4559079973
 O         -1.7582441386        0.5050427798        1.9493965569
 C         -0.3457245818       -1.4815021169        0.5379905331
 C          0.5239594944       -0.9113010932       -0.5567686754
 C          0.6891257317       -1.5502516417       -1.7815729680
 C          1.4667606740       -0.9763366278       -2.7704618883
 C          2.1115630973        0.2286924362       -2.5537515289
 C          1.9536491280        0.8756098349       -1.3343942984
 C          1.1601071483        0.3056865622       -0.3485437681
 H          1.0297015332        0.8303758797        0.5866952809
 N          2.6013207053        2.0994004237       -1.0802891764
 S          3.5208959239        2.2268081917        0.3136722363
 O          2.6682114862        2.3242289340        1.4696509185
 O          4.4006901910        3.3489969781        0.0703413960
 C          4.4579739707        0.7098551414        0.3507953472
 C          4.0194079096       -0.3493413234        1.1189691416
 C          4.7177234241       -1.5456527479        1.0688811032
 C          5.8331201236       -1.6620426954        0.2541965252
 C          6.2640242782       -0.5869848103       -0.5081854448
 C          5.5686240295        0.6101445430       -0.4645455145
 H          5.8756150124        1.4731491582       -1.0329662359
 H          7.1350607333       -0.6793310786       -1.1366449640
 H          6.3702003771       -2.5965178811        0.2166665888
 H          4.3866788058       -2.3831443584        1.6622494663
 H          3.1494338038       -0.2165592651        1.7418912224
 H          3.1196096996        2.4564146273       -1.8707267908
 H          2.7236107389        0.6721737015       -3.3245953984
 H          1.5784698849       -1.4779230457       -3.7196341507
 H          0.1758360104       -2.4798077354       -1.9658638458
 H         -0.0996188258       -0.9499878803        1.4676182949
 C         -0.1145223043       -2.9630002238        0.7547686058
 C          1.1308348545       -3.4044322451        1.4607916347
 C         -0.1981764601       -3.5177737486        2.1438098310
 H         -0.6290471444       -4.4982610635        2.2806301185
 H         -0.4222967785       -2.8283427306        2.9451629259
 H          1.6191000869       -4.3079335650        1.1303930374
 H          1.8052377279       -2.6327284196        1.7995460934
 H         -0.4922360434       -3.5841672795       -0.0463558567
