  62
        -98.94440072
 C         -1.7852101702       -1.5524037910        0.0631955404
 C         -1.6539286107       -0.5031068208       -0.8777138794
 C         -2.8065082308        0.4037104391       -0.9948607689
 C         -3.8562436606        0.2471277587       -0.1677622886
 C         -5.0497046107        1.1550960285       -0.1162831881
 C         -4.8198730206        2.3147872483        0.8638955521
 C         -3.4914951108        3.0428321086        0.6582837119
 H         -3.4465617107        3.8519708485        1.3901594320
 H         -2.6733415906        2.3554988887        0.8851026315
 C         -3.2972464013        3.6159527989       -0.7525054181
 H         -2.9165030915        4.6360457090       -0.6700364879
 H         -4.2586699715        3.6700485689       -1.2645922678
 C         -2.3057393214        2.8410474693       -1.6218916785
 H         -1.3541013513        2.7356431093       -1.0972061088
 H         -2.1130039518        3.4283821295       -2.5238954384
 C         -2.7591743413        1.4485240293       -2.0756003087
 H         -3.7299300915        1.5224192592       -2.5711351884
 H         -2.0281299215        1.0896062696       -2.8066774889
 H         -5.6445140908        3.0221625882        0.7601110625
 H         -4.8393789103        1.9165657981        1.8809524520
 H         -5.2483729811        1.5428609087       -1.1136678379
 H         -5.9111792305        0.5739838683        0.2164726321
 O         -3.9191826401       -0.7339331515        0.7678630812
 C         -2.9059134000       -1.6687074014        0.8894099107
 O         -3.1114473996       -2.5375221216        1.7601956606
 H          1.7687239896       -1.8742232502       -0.8266715806
 C          1.6775012899       -1.7109179604        0.2341357194
 C          0.5024345001       -2.0139407608        0.9047409097
 C          0.4240080804       -1.7508342511        2.2710982898
 C          1.4980133405       -1.2126397110        2.9521965096
 C          2.6702998103       -0.9122381807        2.2797165693
 C          2.7544960400       -1.1569717104        0.9154023092
 N          3.9303967997       -0.8452915101        0.2000013590
 S          3.7922963592        0.3235070002       -0.9988185707
 O          3.0428949589       -0.1970202997       -2.1093554206
 O          5.1551808990        0.7228645605       -1.2814868410
 C          2.9383456592        1.6475967698       -0.1627815102
 C          3.7037272492        2.5920794798        0.4943707798
 C          3.0724859493        3.5523786396        1.2672739501
 C          1.6915923993        3.5346516993        1.3909895305
 C          0.9402452393        2.5766431493        0.7289404105
 C          1.5614691492        1.6236756796       -0.0644265098
 H          0.9972671692        0.8783948796       -0.6050081398
 H         -0.1337737407        2.5586253491        0.8331682908
 H          1.1953990394        4.2695608691        2.0050805308
 H          3.6557903993        4.3016546096        1.7777566701
 H          4.7749973692        2.5601627200        0.3761661295
 H          4.7069239598       -0.6015228401        0.8003531688
 H          3.5136376404       -0.4916431307        2.8065306392
 H          1.4235382508       -1.0229510113        4.0120733296
 H         -0.4969865094       -1.9807382013        2.7892056200
 C         -0.7046606400       -2.6116622708        0.2223815899
 H         -1.1286263297       -3.3611402511        0.9056562499
 C         -0.3882987902       -3.2883444005       -1.0941468903
 C          0.2891350900       -4.6244059204       -1.0851769008
 C         -1.1517871802       -4.5169749706       -1.4830171504
 H         -1.4131022304       -4.6538742004       -2.5216988003
 H         -1.9007141499       -4.8792167408       -0.7934433102
 H          0.5180387103       -5.0609319706       -0.1245759109
 H          1.0209196598       -4.8359426601       -1.8499692110
 H         -0.1304435006       -2.5958389203       -1.8860571802
 O         -0.6341087409       -0.3234919705       -1.5941836396
