  62
        -98.94686547
 C         -1.1411235297       -1.1601311502       -0.1813739001
 C         -1.9959971997       -0.8453627812        0.9089061701
 C         -2.8258163105        0.3564116383        0.7664559907
 C         -2.7188296411        1.0958409588       -0.3520992990
 C         -3.5518369619        2.3043443184       -0.6659662584
 C         -4.8219044318        1.9165459880       -1.4364486384
 C         -5.6024417009        0.7652461372       -0.8022075288
 H         -6.4938571209        0.6020166269       -1.4118192188
 H         -5.0035215204       -0.1465112024       -0.8598274992
 C         -6.0177485209        1.0062531663        0.6559838114
 H         -5.9630580516        2.0708206762        0.8864353618
 H         -7.0596341907        0.7025803256        0.7779411813
 C         -5.2021592603        0.2216307764        1.6854761609
 H         -5.7126229403        0.2934368857        2.6496108410
 H         -5.1798079297       -0.8347541235        1.4060964305
 C         -3.7583328206        0.6956942372        1.8948916210
 H         -3.7507185113        1.7692890772        2.0935959714
 H         -3.3649103602        0.1795850471        2.7753629507
 H         -5.4637661123        2.7964404676       -1.5093204880
 H         -4.5366959917        1.6196603086       -2.4483228685
 H         -3.8211401021        2.8077558879        0.2607720519
 H         -2.9597395324        2.9821822591       -1.2826496481
 O         -1.8601635010        0.7913491898       -1.3542502592
 C         -1.0550086703       -0.3349978097       -1.3029966697
 O         -0.3297486603       -0.4643710088       -2.3108233699
 O         -2.0674890692       -1.5488419817        1.9511117499
 C         -0.3235405888       -2.4358455898       -0.0510321407
 C          1.0917470210       -2.1313219590        0.3747242693
 C          1.5853826014       -2.5679626592        1.5982921590
 C          2.8753581613       -2.2550402086        1.9932356990
 C          3.6945600707       -1.4887230677        1.1827132093
 C          3.2037963103       -1.0407357075       -0.0362378305
 C          1.9206674805       -1.3733812682       -0.4402135905
 H          1.5468812401       -1.0121874080       -1.3866129203
 N          4.0054944597       -0.1945680967       -0.8418775802
 S          4.1606035587        1.3551514632       -0.2224335296
 O          4.7391001581        2.1524024540       -1.2794875393
 O          4.9121692789        1.2807763231        1.0045046003
 C          2.4974892384        1.9061737520        0.1225002908
 C          1.8472818478        2.6913668319       -0.8075151688
 C          0.5497899876        3.1020891710       -0.5493532885
 C         -0.0787129620        2.7058677001        0.6204375614
 C          0.5785157586        1.8965958702        1.5336090510
 C          1.8819598688        1.4966275911        1.2889585807
 H          2.4270959393        0.8831656511        1.9875219004
 H          0.0771462089        1.5718195595        2.4317129109
 H         -1.0886769122        3.0251122994        0.8230460017
 H          0.0316784271        3.7233736510       -1.2621893481
 H          2.3716476275        2.9777194327       -1.7052655787
 H          3.6541754495       -0.1248907865       -1.7880597901
 H          4.6894972606       -1.2061975572        1.4859219593
 H          3.2444369816       -2.6041363987        2.9456015488
 H          0.9441459119       -3.1426175199        2.2505005389
 H         -0.8015060284       -2.9998416304        0.7610089291
 C         -0.3411856584       -3.2911264092       -1.3031882011
 C         -0.0177276975       -4.7496754191       -1.1902153317
 C         -1.4221052178       -4.3131644499       -1.4790215914
 H         -1.8220147778       -4.4747188697       -2.4688315914
 H         -2.1565298976       -4.4054078907       -0.6920810213
 H          0.5501805627       -5.2138699484       -1.9817543520
 H          0.1995742029       -5.1392563694       -0.2072340319
 H         -0.0048946788       -2.7677904887       -2.1886894709
