  62
        -98.94050473
 C          1.3680845707        0.9409190788       -0.1359345745
 C          2.4844323407        0.9423629037        0.7373915354
 C          3.4864870707       -0.1215837283        0.5601615318
 C          3.2999691909       -1.0425081810       -0.4034206157
 C          4.1091470201       -2.2628347247       -0.7915867487
 C          5.5198473775       -2.4693713425       -0.2467852928
 C          6.5571886410       -1.4756576885       -0.7696814030
 H          7.4931245509       -1.6437405987       -0.2326141212
 H          6.7370218164       -1.6879044871       -1.8265924590
 C          6.1750992733       -0.0021456720       -0.6551914244
 H          6.9892946521        0.5884576895       -1.0838116762
 H          5.2846182903        0.1929944033       -1.2561046564
 C          5.9343410294        0.5017477425        0.7662183276
 H          5.8226623271        1.5881760010        0.7163226156
 H          6.8059345791        0.2836052479        1.3863796260
 C          4.6839716274       -0.0594018396        1.4645181901
 H          4.8815546349       -1.0327348526        1.9076816921
 H          4.4165125680        0.6218997214        2.2776390705
 H          5.5053669254       -2.4734514281        0.8391886514
 H          5.8318248379       -3.4688760019       -0.5620071156
 H          3.4947966370       -3.1240528666       -0.5046751695
 H          4.1436884379       -2.2633472587       -1.8859406578
 O          2.2077956388       -1.0103117405       -1.2185776759
 C          1.2200468589       -0.0420612508       -1.1136161974
 O          0.3058796709       -0.1813624344       -1.9489251416
 H         -0.8271259143       -0.4084561467        0.3869382619
 C         -1.2395737207        0.3319509014        1.0532064869
 C         -0.7400340972        1.6250389164        1.0497155532
 C         -1.2736384722        2.5489636122        1.9419811924
 C         -2.2818105505        2.1836295311        2.8146749076
 C         -2.7841190093        0.8948520548        2.8086242921
 C         -2.2548816642       -0.0386805515        1.9246508434
 N         -2.7270202740       -1.3582509430        1.9160158158
 S         -2.8491542287       -2.2147741360        0.4838156405
 O         -3.7584889799       -3.2958128322        0.8055123294
 O         -1.5428162064       -2.6116343314        0.0244605104
 C         -3.6463661919       -1.0894796444       -0.6463997180
 C         -4.9859814649       -0.8285111379       -0.4251970805
 C         -5.6404935102        0.0740707911       -1.2457029571
 C         -4.9457161987        0.7020763665       -2.2689155673
 C         -3.6046777263        0.4253863395       -2.4794428537
 C         -2.9414415053       -0.4787235092       -1.6621371582
 H         -1.8951004659       -0.7020009492       -1.8041017359
 H         -3.0601220189        0.9088128115       -3.2753320128
 H         -5.4519629656        1.4085590701       -2.9076852253
 H         -6.6851937660        0.2867106196       -1.0858981517
 H         -5.4923221901       -1.3493065881        0.3713103089
 H         -3.5167334885       -1.5303832981        2.5206590509
 H         -3.5690837328        0.6058444028        3.4903218908
 H         -2.6826014864        2.9083947913        3.5065005574
 H         -0.8809714579        3.5541265146        1.9604769320
 C          0.3453661658        2.0394487098        0.0813685132
 H          0.9017852123        2.8652934616        0.5471134623
 C         -0.2944649546        2.5520719866       -1.1950303511
 C         -0.7673408321        3.9713976725       -1.2723058515
 C          0.4421558636        3.5410786703       -2.0457367573
 H          0.3718487382        3.4478392299       -3.1188288536
 H          1.4120213990        3.8698668835       -1.7011528747
 H         -0.6132005959        4.6034943408       -0.4115056205
 H         -1.6771437753        4.1794637775       -1.8134433065
 H         -0.8795258051        1.7991779650       -1.7059562779
 O          2.6390132222        1.8098947737        1.6398227198
