  62
        -98.94469774
 C         -1.9439199153       -0.6151549442       -0.5502306756
 C         -3.0380551063       -1.3333859800       -0.0092960517
 C         -4.3628395892       -0.7289885027       -0.1988597318
 C         -4.4639755986        0.4357434779       -0.8650451411
 C         -5.7440913387        1.1865491803       -1.0888738465
 C         -5.9989835786        2.1984277733        0.0369585235
 C         -5.8531162572        1.6097129888        1.4401797035
 H         -4.8095083076        1.3297961156        1.6014758861
 H         -6.0858100849        2.4047359385        2.1519423258
 C         -6.7524074259        0.3965419656        1.7160876448
 H         -7.5599128316        0.3600625787        0.9840302214
 H         -7.2117790465        0.5180611197        2.6993207122
 C         -6.0198824563       -0.9464281820        1.7296547884
 H         -5.1529829881       -0.8835963164        2.3921149266
 H         -6.6959935338       -1.6979478594        2.1458530284
 C         -5.5470950326       -1.4630792615        0.3648492814
 H         -5.2221218404       -2.4992620386        0.4964067677
 H         -6.3795511171       -1.4515093440       -0.3415322717
 H         -7.0038672399        2.6063790733       -0.0865594768
 H         -5.2839667159        3.0179773727       -0.0665073045
 H         -5.6663561738        1.7225225007       -2.0363492933
 H         -6.5685787502        0.4788215422       -1.1497404306
 O         -3.3921174881        1.0927970404       -1.3765618110
 C         -2.1050258988        0.5948385600       -1.2251977672
 O         -1.2197246368        1.3092864800       -1.7318414597
 H          1.6614893180        0.3388327052       -1.1026746000
 C          1.3661008018        0.4606515213       -0.0748804686
 C          0.2832449144       -0.2334811155        0.4393042275
 C         -0.0813327399       -0.0164722155        1.7669385343
 C          0.6150560252        0.8787717094        2.5539100500
 C          1.6965091195        1.5711679499        2.0363018995
 C          2.0683220207        1.3642363975        0.7136998196
 N          3.1430711732        2.0785520142        0.1623913626
 S          4.2880682599        1.3425355162       -0.8039660112
 O          5.3467060671        2.3216786077       -0.9139547677
 O          3.7006604779        0.8934784254       -2.0394733424
 C          4.8562755234       -0.0485245451        0.1570634827
 C          4.2244959817       -1.2691344040        0.0298647987
 C          4.6402305654       -2.3227575124        0.8290231678
 C          5.6728771955       -2.1395456176        1.7355700956
 C          6.2986284964       -0.9072332834        1.8497179445
 C          5.8851088433        0.1510533090        1.0573323694
 H          6.3500103802        1.1224233935        1.1056827166
 H          7.1042061083       -0.7685963539        2.5526199842
 H          5.9929503705       -2.9631183885        2.3541572205
 H          4.1553254515       -3.2817387981        0.7393586149
 H          3.4286170068       -1.3773294196       -0.6880945326
 H          3.5800809675        2.7306663709        0.7969194753
 H          2.2390030466        2.2772348922        2.6465620445
 H          0.3180010147        1.0391954519        3.5792968788
 H         -0.9292142666       -0.5554833298        2.1671650483
 C         -0.5462587268       -1.1879714871       -0.3822199524
 H         -0.6827522707       -2.1116802081        0.1985797608
 C          0.0574494900       -1.5445003230       -1.7230523511
 C          1.1194755191       -2.5984616966       -1.8057129098
 C         -0.2572798396       -2.8787476272       -2.3276190086
 H         -0.4045392583       -2.9382382903       -3.3955789344
 H         -0.8938249483       -3.5428735261       -1.7613028191
 H          1.4139155850       -3.0810072242       -0.8857657343
 H          1.9213022055       -2.4663252441       -2.5172983112
 H          0.1243608210       -0.6994581892       -2.3990559433
 O         -2.9115083333       -2.4274111165        0.6033420550
