  62
        -98.94391485
 C         -2.1254822301       -1.2334683206       -0.1722920996
 C         -2.5489813601       -0.1414173612       -0.9671586703
 C         -3.9564777102        0.2543067188       -0.8100612107
 C         -4.7478729302       -0.4372505206        0.0299559097
 C         -6.1826890102       -0.1092447405        0.3229449294
 C         -6.3010743103        0.8331607703        1.5289971188
 C         -5.3772226604        2.0490404903        1.4562128480
 H         -5.5688866605        2.6566868209        2.3432906576
 H         -4.3389862904        1.7139855204        1.5151802983
 C         -5.5591603204        2.9100808994        0.1984731274
 H         -6.5217678103        2.6906787991       -0.2649722025
 H         -5.5736769105        3.9614738896        0.4933926067
 C         -4.4489240503        2.7557674788       -0.8428822024
 H         -3.4748466003        2.8826908692       -0.3629825225
 H         -4.5579190603        3.5587988883       -1.5768555430
 C         -4.4365722402        1.4296093483       -1.6138449515
 H         -5.4274473102        1.2360485679       -2.0297727915
 H         -3.7297549401        1.5344803977       -2.4422726916
 H         -7.3377184904        1.1658992603        1.6067810485
 H         -6.0558877603        0.2710742509        2.4330516392
 H         -6.6321588302        0.3494399589       -0.5555495509
 H         -6.7093592002       -1.0385845404        0.5463711300
 O         -4.3109206401       -1.4985301401        0.7548546705
 C         -2.9900233301       -1.9095131301        0.6891884708
 O         -2.7118905801       -2.8723879095        1.4317891515
 O         -1.7963067901        0.4721312583       -1.7681716207
 C         -0.6807432701       -1.7009431006       -0.2253432492
 C          0.2195017998       -0.5622174702        0.1870853801
 C          0.0771841297       -0.0346121693        1.4681201697
 C          0.8611388296        1.0213410910        1.8910088591
 C          1.8045645597        1.5776135305        1.0443326887
 C          1.9572706798        1.0565227496       -0.2326118509
 C          1.1769583898       -0.0146716307       -0.6508829402
 H          1.3062375499       -0.4023249714       -1.6488595599
 N          2.9172977898        1.6145414991       -1.0968365312
 S          4.4854178297        1.7495463096       -0.5273164112
 O          4.5704475696        2.8472421002        0.4023041580
 O          5.3133774798        1.8482998888       -1.7079063013
 C          4.7785106998        0.2059395702        0.3160876998
 C          4.7226001997        0.1513340411        1.6937181399
 C          4.8747290497       -1.0750001585        2.3211855707
 C          5.0754081699       -2.2187195190        1.5643230215
 C          5.1335043999       -2.1465774699        0.1806897715
 C          4.9789385899       -0.9241844404       -0.4519594094
 H          5.0251350799       -0.8269074011       -1.5247317694
 H          5.2932178600       -3.0375869903       -0.4050876079
 H          5.1894238199       -3.1723707186        2.0553051322
 H          4.8320214697       -1.1344790277        3.3968521308
 H          4.5689065096        1.0634934415        2.2461167992
 H          2.9064010698        1.2156870084       -2.0241783410
 H          2.4175068796        2.4098335907        1.3504991182
 H          0.7343381496        1.4207384017        2.8859420588
 H         -0.6664252303       -0.4640892489        2.1262397600
 H         -0.5926627901       -2.4946172600        0.5297054514
 C         -0.3559763700       -2.2845382715       -1.5838787987
 C          0.7914206101       -3.2377430515       -1.7289772980
 C         -0.6174558599       -3.7386885916       -1.8297682478
 H         -0.9922904198       -4.0378279823       -2.7971851776
 H         -1.0182362099       -4.3168116311       -1.0099473574
 H          1.3857512102       -3.1994531521       -2.6294017780
 H          1.3518302601       -3.4800119008       -0.8388544978
 H         -0.5613629200       -1.5982876420       -2.3973317492
