  62
        -98.94549066
 C         -1.7644668541       -1.4369432894        0.1934461905
 C         -1.5312435370       -0.1091993240       -0.2409104049
 C         -2.5265989830        0.8848898509        0.1882382884
 C         -3.5598937917        0.4978348995        0.9578215344
 C         -4.6709018547        1.3961962243        1.4172159900
 C         -5.8394699871        1.3903495407        0.4216621314
 C         -5.4157131642        1.6133007566       -1.0301182469
 H         -4.8166837756        0.7618091118       -1.3609467705
 H         -6.3243314040        1.6210925360       -1.6362175490
 C         -4.6291163826        2.9094802888       -1.2700172681
 H         -5.0231842337        3.3973747817       -2.1640803390
 H         -4.7805564465        3.5942027239       -0.4348628259
 C         -3.1295008137        2.7077453263       -1.4955682903
 H         -2.7136888742        3.6480220002       -1.8670074175
 H         -2.9751446049        1.9527784136       -2.2704006334
 C         -2.3165581268        2.3038557809       -0.2591554174
 H         -1.2568112764        2.3747599284       -0.5191625221
 H         -2.5216536931        2.9982361130        0.5578634880
 H         -6.3449244705        0.4239102420        0.4861018918
 H         -6.5495099627        2.1644715652        0.7184996066
 H         -5.0276079429        1.0356438575        2.3834977280
 H         -4.2876400543        2.4076155898        1.5368489947
 O         -3.7360537574       -0.7829413270        1.3733738109
 C         -2.8471976956       -1.7781980714        1.0052895442
 O         -3.1219930108       -2.9078509050        1.4581905764
 H          1.4936637939       -1.7348580482       -1.4890127383
 C          1.6101183621       -1.7747710144       -0.4179946818
 C          0.5578878804       -2.1946794713        0.3782655753
 C          0.7355514683       -2.2208248386        1.7590687423
 C          1.9370968617       -1.8391702590        2.3244873862
 C          2.9832143675       -1.4086131801        1.5262312191
 C          2.8112238834       -1.3686342819        0.1496787637
 N          3.8603866374       -0.9177479755       -0.6733512697
 S          4.5853956662        0.5455442868       -0.3068168513
 O          5.2858858341        0.9262141070       -1.5128538699
 O          5.3981662237        0.3890439579        0.8739030138
 C          3.2555673098        1.6877494659        0.0170702697
 C          2.6107741370        2.2633156293       -1.0590568885
 C          1.5644404789        3.1387796027       -0.8241036992
 C          1.1756107896        3.4140556225        0.4776058103
 C          1.8269088978        2.8207743838        1.5472829131
 C          2.8792004225        1.9492492609        1.3184912164
 H          3.4179582519        1.4787946087        2.1243899498
 H          1.5176802782        3.0334975321        2.5582203606
 H          0.3597195945        4.0960150940        0.6597816222
 H          1.0527770585        3.5978644797       -1.6549108525
 H          2.9460680533        2.0312165172       -2.0571110499
 H          3.6329152996       -0.9476996769       -1.6570341461
 H          3.9251545396       -1.0992123404        1.9492004804
 H          2.0614652589       -1.8716454986        3.3964194800
 H         -0.0892961517       -2.5379643801        2.3829851544
 C         -0.7972027697       -2.5476524419       -0.1826056310
 H         -1.1573989159       -3.4515940000        0.3268114704
 C         -0.8071800396       -2.7926984321       -1.6765829464
 C         -0.2622344370       -4.0783344481       -2.2203263117
 C         -1.7385063628       -3.8211963078       -2.2407274932
 H         -2.2144179105       -3.6206549701       -3.1890490185
 H         -2.3640196881       -4.3622483136       -1.5457041500
 H          0.2747905212       -4.0592283534       -3.1566005314
 H          0.1174556041       -4.7976960445       -1.5105858477
 H         -0.6597685321       -1.8894367485       -2.2567571251
 O         -0.5517823998        0.2342575840       -0.9520250491
