  62
        -98.93904906
 C          2.1732932048        1.1613987563        0.4279220913
 C          2.2184700587        0.2566532971       -0.6573534508
 C          2.9400354240       -1.0132664054       -0.4346740356
 C          3.4799252889       -1.2500558588        0.7752712753
 C          4.2917154320       -2.4389161538        1.2156563148
 C          5.7313170012       -2.4060922734        0.6753388843
 C          5.8617841729       -1.9945021557       -0.7888866552
 H          5.4073762043       -1.0117683555       -0.9268059319
 H          6.9272714583       -1.8937048747       -1.0111613006
 C          5.2659164821       -2.9745876149       -1.7965088261
 H          5.4947652655       -2.5937166556       -2.7949998308
 H          5.7592704002       -3.9431581100       -1.6890869022
 C          3.7538697154       -3.1897765909       -1.7059132252
 H          3.4990737833       -3.8371257015       -0.8709295131
 H          3.4442643673       -3.7187984286       -2.6120966669
 C          2.9277949154       -1.9081802917       -1.6502257972
 H          1.8728152148       -2.1650840908       -1.8113433474
 H          3.2006217404       -1.2686047871       -2.4973547976
 H          6.1758013090       -3.3920329552        0.8201560798
 H          6.2982415566       -1.6885679350        1.2733916370
 H          4.3291097861       -2.4067095635        2.3068874055
 H          3.7886694248       -3.3582781544        0.9301335628
 O          3.3809568557       -0.3591759361        1.8045408354
 C          2.7244373101        0.8481314854        1.6682740772
 O          2.6914362282        1.5408769639        2.7071935758
 O          1.6899345492        0.4936578794       -1.7748147144
 C          1.4414776799        2.4850681294        0.2864717196
 C         -0.0105047971        2.2120929713       -0.0239431968
 C         -0.6918757546        2.7663658284       -1.0983851057
 C         -2.0138035388        2.4302492381       -1.3372646696
 C         -2.6835510892        1.5454617883       -0.5124422028
 C         -2.0138312272        0.9939327422        0.5722427928
 C         -0.6930990757        1.3345894889        0.8105822148
 H         -0.1694418715        0.8971118025        1.6533345404
 N         -2.6915925046        0.0889568429        1.4193277673
 S         -3.1499276896       -1.3661201674        0.7027887691
 O         -3.2744380858       -2.3052428453        1.7971621536
 O         -2.2470448260       -1.7391914938       -0.3627754924
 C         -4.7673703721       -1.0191552609        0.0459903294
 C         -5.7717082890       -0.6830181493        0.9328235043
 C         -7.0360501416       -0.4072069451        0.4372998297
 C         -7.2732866268       -0.4741549819       -0.9277937982
 C         -6.2548289963       -0.8164524631       -1.8042714070
 C         -4.9871947939       -1.0925238636       -1.3154114539
 H         -4.1620579644       -1.3571977786       -1.9572892692
 H         -6.4409851557       -0.8686096693       -2.8649490231
 H         -8.2581513558       -0.2589929647       -1.3111854752
 H         -7.8307655706       -0.1412046156        1.1154143683
 H         -5.5444047921       -0.6488467720        1.9851881516
 H         -2.1747218165       -0.1138461869        2.2642896681
 H         -3.7110862806        1.2785914186       -0.6983601388
 H         -2.5286544954        2.8620908375       -2.1817762165
 H         -0.1841055610        3.4501151840       -1.7582561348
 H          1.4944871854        2.9669229135        1.2738056819
 C          2.1308021804        3.3712906636       -0.7284734438
 C          2.0032260708        4.8611748468       -0.6333385980
 C          3.3016271180        4.1966906844       -0.2899960747
 H          4.1355876588        4.3086136402       -0.9664371966
 H          3.5893265979        4.1362296915        0.7498200178
 H          1.9485779351        5.4336945469       -1.5467418449
 H          1.4101175610        5.2608176356        0.1751603171
 H          2.1776597250        2.9194931655       -1.7123370986
