  62
        -98.94031254
 C         -1.4564774479       -1.2343684656        0.2787796583
 C         -1.5736493062        0.1754346445        0.3961796588
 C         -2.7714457692        0.7807174586       -0.1939694398
 C         -3.6773315292       -0.0023142901       -0.8065072446
 C         -4.9430250025        0.4628863349       -1.4745032752
 C         -6.1199228937        0.6690894712       -0.5110840481
 C         -6.0150830904        1.8987863675        0.3920834144
 H         -5.8061715922        2.7786950558       -0.2170494295
 H         -6.9959818427        2.0447765783        0.8489661473
 C         -4.9654969289        1.7792338168        1.5059883068
 H         -5.3972897910        2.1177219568        2.4506829618
 H         -4.6925667817        0.7296016445        1.6377313641
 C         -3.6936841636        2.5940181608        1.2701015479
 H         -3.9361229120        3.6590451928        1.2714929668
 H         -3.0073911635        2.4023925597        2.0987963823
 C         -2.9635739066        2.2587434070       -0.0368065469
 H         -1.9718453093        2.7152079458       -0.0036375395
 H         -3.5111487440        2.6631512544       -0.8877692079
 H         -7.0235420934        0.7666782398       -1.1173712205
 H         -6.2291963823       -0.2268820132        0.1044641834
 H         -4.7509100412        1.3882046876       -2.0183614006
 H         -5.2184550496       -0.3122980193       -2.1927832907
 O         -3.5257382031       -1.3479611478       -0.9089866364
 C         -2.4166388596       -2.0024968316       -0.3797711619
 O         -2.4293024620       -3.2321522022       -0.5707587840
 O         -0.7133390693        0.8909878262        0.9725991169
 C         -0.2021960183       -1.8476723017        0.8752308315
 C          0.9036673101       -1.8126097769       -0.1477158074
 C          0.7379352905       -2.3939854011       -1.4020631326
 C          1.7544010383       -2.3393795842       -2.3369952221
 C          2.9433114822       -1.6908838558       -2.0490029051
 C          3.1138055740       -1.0987017487       -0.8034633504
 C          2.0967374206       -1.1680826317        0.1401137075
 H          2.2438516946       -0.7063125642        1.1044948127
 N          4.3068656973       -0.4386037019       -0.4830664928
 S          4.2963357623        0.9040717606        0.5091220401
 O          5.5368387632        1.5818619636        0.1950301276
 O          4.1390111827        0.5017912160        1.8844789392
 C          2.9188713950        1.9122503776       -0.0090906100
 C          2.7475440058        2.1607939451       -1.3567132468
 C          1.7029071680        2.9760712247       -1.7581222577
 C          0.8592379215        3.5358237547       -0.8108877594
 C          1.0483801921        3.2821088715        0.5374191373
 C          2.0862226762        2.4595003161        0.9436818354
 H          2.2542452524        2.2248720664        1.9823641330
 H          0.3872088782        3.7079791873        1.2743895544
 H          0.0471241597        4.1719869439       -1.1276150679
 H          1.5484016343        3.1727578312       -2.8071323631
 H          3.4233002976        1.7223219841       -2.0730488717
 H          4.9698911048       -0.3512934089       -1.2386936015
 H          3.7342763917       -1.6444474474       -2.7818521235
 H          1.6179752161       -2.7996793337       -3.3039047104
 H         -0.1949270843       -2.8882665175       -1.6297485839
 H          0.0874613832       -1.1625589907        1.6884842602
 C         -0.4135489702       -3.2203795114        1.4957940543
 C          0.2138112884       -4.4748993837        0.9738404523
 C          0.7098831586       -3.8689763277        2.2500679522
 H          0.4912404583       -4.3658352803        3.1831988312
 H          1.6696554988       -3.3732395135        2.2284540241
 H         -0.3717485176       -5.3803671613        1.0204668298
 H          0.8452014237       -4.4106219555        0.1019959011
 H         -1.4064984742       -3.3263473739        1.9200314216
