  62
        -98.93902000
 C         -2.0763448434       -0.8040571848        0.5077210594
 C         -1.9296292032       -0.0877101328       -0.7023697018
 C         -1.9261547616        1.3814956743       -0.5972431586
 C         -2.0408751048        1.9501487999        0.6150765785
 C         -2.0836365412        3.4176215391        0.9441232942
 C         -3.5321870117        3.9346412120        0.9793295213
 C         -4.0803708718        4.4101675784       -0.3653972064
 H         -5.1406082021        4.6312930657       -0.2236260337
 H         -3.5844959034        5.3418138796       -0.6451937155
 C         -3.9357483287        3.4131376552       -1.5175202703
 H         -4.1920583499        2.4108284184       -1.1697542230
 H         -4.6589316356        3.6842906209       -2.2889324283
 C         -2.5292302959        3.4031185139       -2.1351517510
 H         -1.9686748862        4.2621880045       -1.7676559931
 H         -2.6072898735        3.5238631043       -3.2176788269
 C         -1.7254019490        2.1189155852       -1.8926159480
 H         -1.9680157520        1.3848873986       -2.6680602953
 H         -0.6544300428        2.3292357715       -1.9930334726
 H         -4.1628331010        3.1332917556        1.3725140352
 H         -3.5876820305        4.7688398002        1.6815783020
 H         -1.6507009700        3.5200114916        1.9417457695
 H         -1.4769286207        3.9839463073        0.2436820227
 O         -2.1929712876        1.2207927652        1.7572086140
 C         -2.1896164632       -0.1609340717        1.7376035652
 O         -2.3001364984       -0.6957983114        2.8615567533
 H          0.3819270212       -1.1982795089        0.9257764284
 C          0.4574328237       -2.0130870733        0.2191532271
 C         -0.6796897271       -2.7344986077       -0.1217941093
 C         -0.5518461548       -3.7894479359       -1.0158050484
 C          0.6785566288       -4.0824179916       -1.5789586535
 C          1.7963310623       -3.3270652789       -1.2772632276
 C          1.6821752376       -2.2823860162       -0.3661991134
 N          2.7988852051       -1.5023826651       -0.0141110926
 S          2.5529789387        0.1333033676        0.3307410363
 O          2.1127347690        0.2597839445        1.6989440920
 O          1.7165175011        0.7480975209       -0.6748218542
 C          4.2289051528        0.7282506998        0.1883758304
 C          4.6337055464        1.3497577309       -0.9776856436
 C          5.9487850737        1.7736472416       -1.0900167655
 C          6.8326202245        1.5663701500       -0.0417541845
 C          6.4115420890        0.9417400632        1.1230470706
 C          5.0978119834        0.5170950755        1.2423941164
 H          4.7213137598        0.0357686066        2.1299118326
 H          7.1005780744        0.7845125621        1.9370521686
 H          7.8554909874        1.8960221203       -0.1321227585
 H          6.2775627879        2.2623912011       -1.9929165692
 H          3.9085439130        1.4942210431       -1.7626140402
 H          3.5752533876       -1.6272545260       -0.6501767874
 H          2.7480695846       -3.5395874840       -1.7399306121
 H          0.7631654269       -4.8995264353       -2.2792762175
 H         -1.4180535639       -4.3720915449       -1.2837485308
 C         -1.9931705402       -2.3196535740        0.4985958993
 H         -1.9923010923       -2.6320238451        1.5538945587
 C         -3.2012770786       -2.9197116333       -0.1902193960
 C         -3.7212153941       -4.2623536132        0.2252205887
 C         -4.4881805678       -3.0222983927        0.5700181873
 H         -5.4122604960       -2.8225835711        0.0487988006
 H         -4.4829316250       -2.6825268947        1.5957902016
 H         -4.1242120567       -4.9162800899       -0.5333348966
 H         -3.2038129927       -4.7739693371        1.0226756048
 H         -3.2573667694       -2.6462545938       -1.2376111046
 O         -1.8118562534       -0.6496309245       -1.8238994363
