  62
        -98.93836332
 C          1.7760818841        0.2741848140       -0.8799929975
 C          2.9317245220       -0.5279817628       -1.0553725264
 C          4.2096442994        0.1157353693       -0.7100419701
 C          4.2325616578        1.3858294739       -0.2708984101
 C          5.4574362824        2.1738282794        0.1070405607
 C          5.9379491047        1.9273683891        1.5437543784
 C          6.5983226892        0.5693724866        1.7854958569
 H          7.3840672483        0.4117631240        1.0459661105
 H          7.0781651828        0.6166206031        2.7651519418
 C          5.6274670940       -0.6196671356        1.7691861100
 H          4.6039337094       -0.2562376488        1.8873736198
 H          5.8354068243       -1.2711561155        2.6210650407
 C          5.7041540492       -1.4827320226        0.5097158330
 H          4.9520807231       -2.2719988040        0.5880953479
 H          6.6854728089       -1.9589043968        0.4507521663
 C          5.4528656849       -0.7177491298       -0.7962754468
 H          6.3133750857       -0.0948132642       -1.0391354496
 H          5.3094668460       -1.4467287911       -1.5976995113
 H          5.0885852003        2.0450713799        2.2206896504
 H          6.6641300372        2.7077958859        1.7828474361
 H          5.1903219197        3.2282887126        0.0095872325
 H          6.2654757341        1.9540241724       -0.5912571114
 O          3.1020849336        2.1287940469       -0.1325381194
 C          1.8586192810        1.5889346387       -0.4120732393
 O          0.9079953054        2.3739760040       -0.2193142131
 O          2.9255186925       -1.7134825448       -1.4720897650
 C          0.3664944384       -0.2169070261       -1.1616893782
 C         -0.2386557054       -0.8966396569        0.0395822113
 C          0.4783860041       -1.8108077503        0.8041409727
 C         -0.1144422950       -2.4332492692        1.8875892793
 C         -1.4358302090       -2.1794655692        2.2113822972
 C         -2.1623090561       -1.2710224327        1.4513169705
 C         -1.5528024021       -0.6217165721        0.3871091467
 H         -2.1137380350        0.1040857186       -0.1809758078
 N         -3.5045347855       -0.9903958772        1.7413212387
 S         -4.5949320524       -0.8234639435        0.4788566291
 O         -5.8786772665       -1.1496587767        1.0611612598
 O         -4.1947889815       -1.6047459562       -0.6670500274
 C         -4.5612915800        0.9127586730        0.0906783054
 C         -4.2938722359        1.3232245987       -1.2000803851
 C         -4.2848760974        2.6797761961       -1.4838236902
 C         -4.5438515946        3.5966835488       -0.4770089541
 C         -4.8148389151        3.1679271778        0.8137377648
 C         -4.8251443891        1.8133248123        1.1035788673
 H         -5.0351869462        1.4414232989        2.0925191709
 H         -5.0152534433        3.8852867108        1.5932128238
 H         -4.5332965622        4.6517546415       -0.7007528363
 H         -4.0725960385        3.0146020529       -2.4865919159
 H         -4.0926340123        0.5777147343       -1.9537965749
 H         -3.8938228421       -1.5185254541        2.5086283778
 H         -1.9019207338       -2.6803207302        3.0464343661
 H          0.4537777364       -3.1371270311        2.4771528505
 H          1.4989444765       -2.0370853381        0.5353024834
 H         -0.2238485939        0.6944151652       -1.3500715910
 C          0.2672009845       -1.0776610401       -2.4143709735
 C          0.0862436886       -2.5620416250       -2.3883056349
 C         -1.0453330542       -1.6815355811       -2.8209303221
 H         -1.3152521136       -1.6655627687       -3.8664996912
 H         -1.8865141030       -1.5826644890       -2.1492421099
 H          0.6125448210       -3.1441648686       -3.1292216571
 H          0.0131370586       -3.0492587060       -1.4287223003
 H          0.8866442425       -0.6873538297       -3.2160716916
