  62
        -98.93660071
 C          2.3965248834        0.4667754632        0.5137072755
 C          2.2116616413       -0.3025231858       -0.6571539035
 C          1.9268804881       -1.7368165642       -0.4682063125
 C          1.8347669198       -2.2246612516        0.7815120379
 C          1.4899977773       -3.6225738830        1.2311402238
 C          2.1310617505       -4.7872717103        0.4615940443
 C          1.1401414001       -5.5545413624       -0.4155248846
 H          1.5202835881       -6.5672117895       -0.5677582148
 H          0.1940512164       -5.6376828360        0.1232674675
 C          0.8833927025       -4.9467513535       -1.7931435600
 H          1.7671627356       -5.0867778546       -2.4194397977
 H          0.0656412546       -5.5060695256       -2.2534459917
 C          0.5234686577       -3.4596627318       -1.8004665179
 H         -0.1658722496       -3.2160542115       -0.9915828786
 H         -0.0024690516       -3.2467863201       -2.7337721143
 C          1.7454970455       -2.5313980563       -1.7320991760
 H          2.6593612031       -3.0988168074       -1.9310076362
 H          1.6752588610       -1.7760968654       -2.5209057008
 H          2.9652878641       -4.4225417381       -0.1350783788
 H          2.5383768307       -5.4836685123        1.1964190880
 H          1.7882384009       -3.6625504969        2.2816469924
 H          0.4006073504       -3.7183959612        1.2145208836
 O          2.0217219435       -1.4428735566        1.8855023068
 C          2.2836400173       -0.0899490934        1.7846336480
 O          2.4034437913        0.4979229008        2.8808102224
 H          0.0498260962        1.3977229119        0.9025994501
 C          0.1354977583        2.1113989356        0.0946559535
 C          1.3921014775        2.5549998346       -0.2987761804
 C          1.4753810698        3.4889848494       -1.3224667169
 C          0.3272947116        3.9311364237       -1.9581893612
 C         -0.9162462638        3.4452732405       -1.5999949499
 C         -1.0109715348        2.5271340330       -0.5590690124
 N         -2.2574891038        2.0256267218       -0.1461335120
 S         -2.3301424867        0.4582174773        0.4785659344
 O         -1.9904222643        0.5030185363        1.8803237222
 O         -1.5692071053       -0.4582099669       -0.3391456069
 C         -4.0770477323        0.1427240793        0.3010381067
 C         -4.5291701107       -0.6002926453       -0.7728361087
 C         -5.8923590788       -0.8058684143       -0.9193030347
 C         -6.7750869661       -0.2646038959        0.0030767650
 C         -6.3062350053        0.4788389792        1.0762706647
 C         -4.9447304729        0.6867615575        1.2294188183
 H         -4.5317929902        1.2487004549        2.0508968984
 H         -6.9950019423        0.8960541104        1.7929332223
 H         -7.8351252841       -0.4253103084       -0.1136274866
 H         -6.2591222057       -1.3858253566       -1.7507689372
 H         -3.8039262524       -1.0053585003       -1.4604437218
 H         -2.9915382533        2.1913824944       -0.8212424918
 H         -1.8062850101        3.7699379272       -2.1170468634
 H          0.4054613413        4.6504353079       -2.7593008832
 H          2.4388813265        3.8576625601       -1.6340780974
 C          2.5921169611        1.9689249952        0.4073687332
 H          2.6052460348        2.3483896547        1.4402157317
 C          3.9117727028        2.2998841957       -0.2561954053
 C          4.6235214262        3.5764643451        0.0742307562
 C          5.1624542872        2.2684972518        0.5679957308
 H          6.0642290721        1.8776259552        0.1214144400
 H          5.0564211886        2.0314694781        1.6169321897
 H          4.1599006081        4.2353886446        0.7927616123
 H          5.1610337007        4.0853331838       -0.7115584392
 H          3.9703678156        1.9242500348       -1.2710404544
 O          2.2769054873        0.1862393127       -1.8166847649
