  62
        -98.93461316
 C         -2.0408181745       -1.4912030797        0.3053977803
 C         -1.7260396036       -0.4696318648       -0.6243857330
 C         -2.5804845276        0.7314703404       -0.5742100654
 C         -3.5619296419        0.8089624634        0.3415200237
 C         -4.4541602302        1.9964454457        0.5670947665
 C         -3.6916290987        3.0861776650        1.3479311160
 C         -3.4504426954        4.3752484500        0.5618441306
 H         -4.3818888802        4.9437061388        0.5194179593
 H         -2.7276024263        4.9703740175        1.1244207479
 C         -2.9435341111        4.1993062529       -0.8728044542
 H         -2.5748326745        5.1739670169       -1.1993847110
 H         -3.7784347730        3.9470282816       -1.5282291525
 C         -1.8313116803        3.1612731607       -1.0721098267
 H         -1.2726176998        3.0160372128       -0.1467145717
 H         -1.1294757253        3.5613103840       -1.8069250460
 C         -2.3151797544        1.7977282577       -1.6010632711
 H         -3.2087751344        1.9425221457       -2.2144036959
 H         -1.5399640925        1.3727536128       -2.2455881302
 H         -4.2433171521        3.3375079388        2.2551486856
 H         -2.7338735763        2.6711828879        1.6703859792
 H         -4.8028278648        2.3827421502       -0.3880720788
 H         -5.3155164342        1.6519978458        1.1398624200
 O         -3.8045441370       -0.1751335719        1.2466435267
 C         -3.0525708849       -1.3395199544        1.2558853990
 O         -3.3694477455       -2.1454491362        2.1537030535
 H          0.0787157124       -1.0177824244        1.8321785240
 C          0.7507472547       -1.5317910906        1.1547944712
 C          0.2355330084       -2.4918168690        0.2918885915
 C          1.1082580267       -3.1337457245       -0.5764654345
 C          2.4585623486       -2.8273575351       -0.5683948579
 C          2.9662284405       -1.8705665668        0.2900691979
 C          2.0974419604       -1.2065667957        1.1475368356
 N          2.5914219173       -0.2055310802        1.9995979936
 S          3.7350978932        0.8581612588        1.4000916501
 O          5.0466342265        0.2717104994        1.5307864821
 O          3.5239191569        2.0856753750        2.1370815357
 C          3.3581297453        1.0951245599       -0.3277553766
 C          2.0894495841        1.5074994241       -0.6816882870
 C          1.7946904702        1.6890764814       -2.0221765235
 C          2.7680895369        1.4587448464       -2.9815076898
 C          4.0401842950        1.0524601399       -2.6101063756
 C          4.3401541388        0.8667428689       -1.2705644936
 H          5.3134500407        0.5454823935       -0.9363152371
 H          4.7958362249        0.8752388574       -3.3584145639
 H          2.5302342003        1.5956747540       -4.0245741035
 H          0.8015720896        1.9919986142       -2.3095024194
 H          1.3452985962        1.6743242152        0.0809744565
 H          1.8785374317        0.2797087915        2.5233320537
 H          4.0161249428       -1.6270183144        0.3119976180
 H          3.1254859087       -3.3383818995       -1.2456427910
 H          0.7320091705       -3.8641186283       -1.2730192597
 C         -1.2444107832       -2.7832952010        0.3673756288
 H         -1.4478630447       -3.1916638768        1.3718941878
 C         -1.7017287297       -3.8411069956       -0.6272660177
 C         -3.0856321498       -3.8216156281       -1.2030247568
 C         -1.9058918268       -3.5319025106       -2.0789440586
 H         -1.6162862579       -4.2748664808       -2.8075897939
 H         -1.7374860854       -2.5158758679       -2.3977386715
 H         -3.7346794560       -3.0031198984       -0.9265974047
 H         -3.6013379923       -4.7626881690       -1.3234319818
 H         -1.3016739622       -4.8215360119       -0.3880777340
 O         -0.7863398850       -0.5407694331       -1.4553865671
