  62
        -98.94522388
 C         -1.6074435512       -0.2114461457       -0.6090351117
 C         -2.8800122069       -0.7131864716       -0.9787238809
 C         -3.9352928351       -0.6146849591        0.0373372954
 C         -3.6361977962       -0.1058262599        1.2464528766
 C         -4.6221088309        0.0916878930        2.3605800527
 C         -5.2567603941        1.4882222992        2.3001525049
 C         -5.7884939421        1.8658260157        0.9174850612
 H         -6.2403126605        2.8564449115        1.0026628090
 H         -4.9485330033        1.9537192813        0.2247531100
 C         -6.8174760861        0.8823039959        0.3428318240
 H         -7.2244064222        0.2623261855        1.1424937992
 H         -7.6477518505        1.4517825595       -0.0800401055
 C         -6.2807609545       -0.0170038022       -0.7722983472
 H         -5.7892848953        0.5957098808       -1.5320885769
 H         -7.1312812950       -0.5107134657       -1.2498238372
 C         -5.3036119401       -1.1145624360       -0.3325405404
 H         -5.7392693507       -1.6880110061        0.4882855107
 H         -5.1565096285       -1.7882891647       -1.1817794913
 H         -6.0685084941        1.5298160565        3.0287073711
 H         -4.5021540585        2.2231984973        2.5897613494
 H         -5.3938752524       -0.6729254602        2.2956039613
 H         -4.0942051836       -0.0179426912        3.3095507613
 O         -2.3965951742        0.3355181577        1.5775318875
 C         -1.3519791087        0.3022582051        0.6629912575
 O         -0.2808446855        0.7606916695        1.1017474508
 O         -3.1209283853       -1.2210013727       -2.1069429393
 C         -0.4788903515       -0.3013543898       -1.6238271654
 C          0.4869108285       -1.3664716510       -1.1647723699
 C          0.0744133521       -2.6973106792       -1.1771843866
 C          0.9185191178       -3.7004210235       -0.7433367900
 C          2.1850337714       -3.3965606703       -0.2721203900
 C          2.6036197627       -2.0730508820       -0.2487371785
 C          1.7603759695       -1.0699377895       -0.7082966733
 H          2.1032353332       -0.0512686616       -0.6950363992
 N          3.8875673787       -1.7217723679        0.2071536096
 S          4.0041043672       -0.5524365509        1.4128987147
 O          5.3294342084       -0.7500636042        1.9654542069
 O          2.9109775801       -0.6551605708        2.3506270681
 C          3.9771453822        0.9993705208        0.5431232489
 C          5.0359175061        1.2820304657       -0.2978839471
 C          5.0378628633        2.4812180813       -0.9914639851
 C          3.9883265681        3.3733726969       -0.8288469250
 C          2.9360556532        3.0751311811        0.0233319408
 C          2.9246503947        1.8758565514        0.7197184518
 H          2.1054046051        1.5954138412        1.3645087946
 H          2.1156995218        3.7647838339        0.1464056841
 H          3.9872833622        4.3064526868       -1.3703456876
 H          5.8530044308        2.7163515932       -1.6566262448
 H          5.8330049116        0.5630859130       -0.3880968764
 H          4.4686311326       -2.5144869299        0.4434151163
 H          2.8426506518       -4.1786549922        0.0772228086
 H          0.5878377158       -4.7281506283       -0.7634176825
 H         -0.9199628278       -2.9313754901       -1.5317146867
 H         -0.9525685470       -0.6548446465       -2.5508209697
 C          0.1668254158        1.0427741720       -1.8812995766
 C          1.0391345271        1.2271727555       -3.0860248928
 C         -0.3071190375        1.8825210694       -3.0276296204
 H         -0.3560878390        2.9527184098       -2.8949580115
 H         -1.0973279725        1.4835536657       -3.6468341699
 H          1.9189232860        1.8455867833       -2.9923038182
 H          1.1621853610        0.3809915744       -3.7447441479
 H          0.4468027384        1.5598035975       -0.9718805601
