  62
        -98.94258345
 C         -0.7312563941       -1.3999070825        0.6563407868
 C         -1.2223910570       -1.0696116495       -0.6276298953
 C         -2.1177901296        0.1017644937       -0.7112695399
 C         -2.4501199085        0.7464739527        0.4225129935
 C         -3.3886384470        1.9134813798        0.5787103641
 C         -4.8678103368        1.5051809124        0.4598840295
 C         -5.1769477999        0.4942352841       -0.6418476042
 H         -4.5573237888       -0.3931750090       -0.4997667561
 H         -6.2188402041        0.1844436113       -0.5257381041
 C         -5.0015416205        1.0094317212       -2.0683453916
 H         -5.6850309659        1.8455090619       -2.2340296728
 H         -5.2925288592        0.2025642647       -2.7457381164
 C         -3.5899030242        1.4621394770       -2.4448013306
 H         -3.3598432421        2.4270196316       -2.0001886747
 H         -3.5707919382        1.6110890151       -3.5287286676
 C         -2.4851539292        0.4572431802       -2.1300805442
 H         -2.7106644608       -0.4923521322       -2.6287096731
 H         -1.5492259808        0.8111417356       -2.5841959877
 H         -5.1685521137        1.0578886321        1.4101531402
 H         -5.4638114277        2.4062918591        0.3070194928
 H         -3.2239555509        2.3220174829        1.5780593844
 H         -3.1377842865        2.6885027226       -0.1405857161
 O         -1.9837965136        0.3641594645        1.6465630186
 C         -1.0856582276       -0.6756032040        1.7916347595
 O         -0.6854227625       -0.8571893841        2.9596210231
 O         -0.9338854422       -1.7251698169       -1.6632998794
 C          0.2678583589       -2.5305601173        0.8142580327
 C          1.4641633120       -2.2820182698       -0.0733719050
 C          2.1239786023       -3.2905366306       -0.7641778173
 C          3.2044512462       -2.9907875376       -1.5758628490
 C          3.6383416098       -1.6867390496       -1.7286043202
 C          2.9925607765       -0.6720289295       -1.0316198030
 C          1.9351865790       -0.9809768886       -0.1930671200
 H          1.4407855828       -0.1880829960        0.3494603785
 N          3.4037286917        0.6655518502       -1.1414074107
 S          2.2515486367        1.8800300444       -1.1661534879
 O          1.0419860654        1.4739373941       -1.8414838026
 O          2.9460757378        3.0127541457       -1.7447367356
 C          1.9254095720        2.2283686838        0.5478267567
 C          2.9895355055        2.3558602033        1.4182466388
 C          2.7318920159        2.6481251060        2.7478647261
 C          1.4245265361        2.8114213515        3.1806003457
 C          0.3680180549        2.6880621520        2.2921107247
 C          0.6192428431        2.3953841712        0.9614537442
 H         -0.1741341835        2.2707628593        0.2396407387
 H         -0.6493931042        2.8019221764        2.6305371102
 H          1.2239945596        3.0315637222        4.2171935354
 H          3.5492474540        2.7438354164        3.4443333335
 H          3.9909296864        2.2192019619        1.0455914997
 H          4.1380539245        0.8324708510       -1.8142214567
 H          4.4639742565       -1.4517246930       -2.3830053653
 H          3.7053530673       -3.7827873981       -2.1117635153
 H          1.7856291458       -4.3100388074       -0.6762550659
 H          0.6023873643       -2.4979168703        1.8620443540
 C         -0.3994726112       -3.8664287514        0.5565785490
 C          0.0518578933       -5.0951643184        1.2861906972
 C         -1.2615765626       -4.4605623014        1.6283437309
 H         -2.1718253186       -4.9637896428        1.3386419833
 H         -1.3415635071       -3.9134270333        2.5565636750
 H          0.0409513419       -6.0391837830        0.7623337838
 H          0.8618639043       -4.9894330525        1.9918470207
 H         -0.7326230756       -3.9701830813       -0.4698663714
