  62
        -98.94040956
 C          2.0682174363        1.0174110470        0.5458688284
 C          2.7789805587        0.0397120616        1.2889331261
 C          4.1936422281       -0.1378017978        0.9484295262
 C          4.7466931342        0.6267993209       -0.0102824717
 C          6.1830866697        0.5887590952       -0.4566177823
 C          6.4854213800       -0.4996446544       -1.4956135943
 C          6.4965525569       -1.9300383394       -0.9549471488
 H          6.9328782340       -2.5625148285       -1.7306821379
 H          7.1520029506       -1.9835793990       -0.0850829503
 C          5.1101762693       -2.4807077942       -0.5922174295
 H          5.0024360669       -3.4906444047       -0.9944159366
 H          4.3385353128       -1.8667087037       -1.0626630731
 C          4.8311227427       -2.5599106824        0.9088479922
 H          5.5121190417       -3.2782276190        1.3709805830
 H          3.8104272458       -2.9258537062        1.0478829807
 C          4.9587688776       -1.2208121346        1.6467918892
 H          4.5323897101       -1.3380691149        2.6461553135
 H          6.0083445571       -0.9437960436        1.7443665957
 H          5.7560517131       -0.4223979876       -2.3052302394
 H          7.4711931746       -0.2850910455       -1.9147805030
 H          6.3947864239        1.5614880874       -0.9058578107
 H          6.8324646990        0.4571902138        0.4094126017
 O          4.0395507046        1.5654112757       -0.6893026369
 C          2.6820303904        1.7683964770       -0.4578292612
 O          2.1767164712        2.6311521851       -1.1974316484
 O          2.2510574611       -0.6460354380        2.2059152644
 C          0.5996812466        1.1864372558        0.8900585005
 C         -0.2536796068        0.2631625073        0.0588405983
 C         -0.1267141741        0.2160749322       -1.3258227271
 C         -0.9243414603       -0.6290697204       -2.0758442195
 C         -1.8675825712       -1.4363636157       -1.4639951695
 C         -2.0071188667       -1.3913579096       -0.0836644123
 C         -1.2011001044       -0.5462398637        0.6682490868
 H         -1.3017845971       -0.5294767699        1.7450344891
 N         -2.9949244809       -2.1845059582        0.5344791956
 S         -4.5703440288       -1.8974316999        0.0294034948
 O         -5.4128034103       -2.3896799239        1.0951216428
 O         -4.7698377945       -2.4907636200       -1.2677224744
 C         -4.6606512643       -0.1201357112       -0.0816622244
 C         -4.4640957700        0.4994549104       -1.2993057441
 C         -4.4257459181        1.8838885785       -1.3467284738
 C         -4.5834622220        2.6206244722       -0.1835348284
 C         -4.7906357758        1.9833914920        1.0304440763
 C         -4.8225098896        0.5995455689        1.0858378435
 H         -4.9818307787        0.0671450146        2.0101127924
 H         -4.9172502842        2.5602516505        1.9324964618
 H         -4.5415059518        3.6972565058       -0.2222092673
 H         -4.2655287663        2.3826587278       -2.2889931627
 H         -4.3493958242       -0.1077685893       -2.1818454271
 H         -2.9472838144       -2.1684070388        1.5435131269
 H         -2.5016341735       -2.0965788080       -2.0335587672
 H         -0.8114328464       -0.6590127632       -3.1490736604
 H          0.5996250843        0.8546147369       -1.8057816984
 H          0.5219211812        0.8507303791        1.9365255854
 C          0.1194444300        2.6305834565        0.8397155068
 C         -0.8754975022        3.1385236983       -0.1564191037
 C         -1.2765686088        2.9654278243        1.2755231551
 H         -1.4317962487        3.8434344844        1.8834093075
 H         -1.9341400851        2.1413062387        1.5090035241
 H         -0.7271740289        4.1355356368       -0.5411503018
 H         -1.2731025164        2.4467642566       -0.8821462518
 H          0.9001992549        3.3248638774        1.1319393878
