  62
        -98.94102543
 C         -1.0671649801       -1.3324902700       -0.1848591332
 C         -1.9481751435       -0.9392495880        0.8541799485
 C         -2.8484391359        0.1989014968        0.5918989125
 C         -2.7853150048        0.8051958587       -0.6078386125
 C         -3.6298211992        1.9363982078       -1.1324462297
 C         -5.0467065101        1.4862384178       -1.5223398651
 C         -5.7320920722        0.5719154699       -0.5105760353
 H         -6.6833260417        0.2520728683       -0.9442466325
 H         -5.1250505570       -0.3237549376       -0.3676680996
 C         -6.0273458816        1.2077053122        0.8459989726
 H         -6.6526287962        2.0912969267        0.6997264289
 H         -6.6082807641        0.4833217826        1.4226498885
 C         -4.8063325415        1.6054245936        1.6789156469
 H         -5.1552122211        1.7898621719        2.6991305545
 H         -4.3788235749        2.5405184337        1.3268952285
 C         -3.7263713476        0.5322905906        1.7735351254
 H         -4.1852926751       -0.4115265307        2.0888502755
 H         -3.0374774730        0.7989702205        2.5839770377
 H         -4.9814928128        0.9445169672       -2.4691814840
 H         -5.6580291491        2.3755773638       -1.6851230894
 H         -3.6707666097        2.7463449849       -0.4102062776
 H         -3.1299763579        2.3122213552       -2.0277940809
 O         -1.9075717279        0.4086865352       -1.5698223227
 C         -1.0282011561       -0.6413462693       -1.3948840848
 O         -0.2893803837       -0.8360038093       -2.3827760222
 O         -1.9954918191       -1.5287359269        1.9666777639
 C         -0.1684393101       -2.5247535219        0.1014295079
 C          1.2106288695       -2.0679128760        0.5096761632
 C          1.7132315308       -2.3330688255        1.7778226223
 C          2.9649871849       -1.8744462358        2.1523770500
 C          3.7346986602       -1.1303556373        1.2754509113
 C          3.2350598047       -0.8553723415        0.0098551839
 C          1.9916527017       -1.3333889001       -0.3712476752
 H          1.6091291569       -1.1057456952       -1.3551008424
 N          3.9809256775       -0.0337076879       -0.8710586150
 S          4.0324619278        1.5694737810       -0.3810672574
 O          4.4423040159        2.3291813751       -1.5398877443
 O          4.8839126148        1.6666901556        0.7771758520
 C          2.3530406917        1.9736632670        0.0695708217
 C          1.4978115902        2.4503476621       -0.9030059274
 C          0.1820636626        2.7214398496       -0.5650866096
 C         -0.2582016872        2.4936058752        0.7293297943
 C          0.6090333250        2.0001211721        1.6911407288
 C          1.9292941368        1.7404965565        1.3627290136
 H          2.6355335833        1.3692196132        2.0870165197
 H          0.2587345108        1.8134607701        2.6936807997
 H         -1.2843896312        2.6978003948        0.9907663941
 H         -0.4967572758        3.0989168249       -1.3129608005
 H          1.8759951411        2.6131901905       -1.8998242908
 H          3.6231165439       -0.0682017976       -1.8166318224
 H          4.6976854970       -0.7365237434        1.5575697231
 H          3.3417971949       -2.0903557313        3.1404904335
 H          1.1074402179       -2.8876970030        2.4792217232
 H         -0.6239971766       -3.0270140120        0.9651408976
 C         -0.0958671697       -3.5130242404       -1.0460722840
 C          0.3135837386       -4.9260316576       -0.7626494736
 C         -1.1058723470       -4.6159883059       -1.1303974560
 H         -1.4655905867       -4.9109142977       -2.1047434245
 H         -1.8562946842       -4.6675804118       -0.3549850355
 H          0.9325815980       -5.4371031997       -1.4838970769
 H          0.5246430773       -5.1898017212        0.2625676848
 H          0.2329476527       -3.0705288064       -1.9773043689
