  62
        -98.93359153
 C         -0.8063349214       -1.9457805097        0.3587755061
 C         -1.4175599475       -1.4345969352       -0.8120411457
 C         -2.7238941760       -0.7753829136       -0.6252479610
 C         -3.2183063024       -0.6254584887        0.6158896413
 C         -4.5229027765        0.0337127967        0.9664001644
 C         -4.4003344072        1.5670162941        0.8754041749
 C         -5.2594164875        2.2051600311       -0.2149676744
 H         -6.3045266587        2.1984676387        0.1013871789
 H         -4.9511752531        3.2488733071       -0.3066890661
 C         -5.1789722576        1.5378323225       -1.5913234574
 H         -5.8258434095        0.6594047291       -1.6107938371
 H         -5.5930379808        2.2436494236       -2.3145178568
 C         -3.7758238268        1.1227194903       -2.0539701576
 H         -3.0103837374        1.7157483593       -1.5535633371
 H         -3.6950241310        1.3366020956       -3.1218000529
 C         -3.4605143472       -0.3737947521       -1.8742009357
 H         -4.3865002934       -0.9517786499       -1.9484875454
 H         -2.8113833443       -0.6932190946       -2.6951278132
 H         -4.6763693203        2.0127583738        1.8321723232
 H         -3.3533507847        1.8100995577        0.6965387032
 H         -5.3013432129       -0.3273804707        0.2970130214
 H         -4.7732481647       -0.2687451426        1.9835318753
 O         -2.5420294453       -1.0205134457        1.7257941899
 C         -1.3486063466       -1.7128274694        1.6260328373
 O         -0.8703224577       -2.0688206648        2.7206590351
 H          1.0401794548       -0.6789029733       -1.2264959298
 C          1.8444527012       -0.9087652683       -0.5430437264
 C          1.7091494718       -1.9800653988        0.3291897449
 C          2.7567039283       -2.2669982726        1.1962993139
 C          3.9155475155       -1.5091508271        1.1806066861
 C          4.0478357418       -0.4433403978        0.3081639719
 C          2.9988772625       -0.1401480412       -0.5501302167
 N          3.1048891714        0.9850061091       -1.4017663241
 S          3.0451532824        2.4576543803       -0.6038580893
 O          2.9180771321        3.4640221332       -1.6319324494
 O          4.1968824317        2.5607226953        0.2544555252
 C          1.5559749753        2.3923253339        0.3779867729
 C          1.5513090558        1.6454471357        1.5400107950
 C          0.3728930716        1.5339092259        2.2600874099
 C         -0.7689582629        2.1846640953        1.8204497351
 C         -0.7449896351        2.9403893406        0.6580755341
 C          0.4233558562        3.0340609956       -0.0803861591
 H          0.4821524586        3.6033173224       -0.9943342705
 H         -1.6311211413        3.4575408497        0.3242484551
 H         -1.6792793788        2.0975381263        2.3932206237
 H          0.3447992850        0.9313535519        3.1543553091
 H          2.4602155234        1.1698379015        1.8698508317
 H          2.4072126297        0.9832111249       -2.1341108175
 H          4.9308190959        0.1745425313        0.2981877228
 H          4.7220591069       -1.7472150924        1.8572527144
 H          2.6538655042       -3.0837270314        1.8957372203
 C          0.4492822261       -2.8041981227        0.3381960013
 H          0.4284639713       -3.3585630388        1.2897242455
 C          0.4221340404       -3.8372049552       -0.7830822514
 C          1.3020536878       -3.7753065778       -1.9916212429
 C          1.5536430674       -4.8096834798       -0.9386448204
 H          1.3226943041       -5.8412898935       -1.1568815768
 H          2.4169341867       -4.6740443127       -0.3047747459
 H          0.8769860322       -4.0815139740       -2.9353159091
 H          1.9974358830       -2.9552566096       -2.0776928923
 H         -0.5779013942       -4.2293080106       -0.9406474249
 O         -0.9245521958       -1.5261979728       -1.9665293097
