  62
        -98.94102489
 C         -1.0558503093       -1.3371796173       -0.1850358621
 C         -1.9339408752       -0.9411159679        0.8554091118
 C         -2.8374677686        0.1940579453        0.5914886894
 C         -2.7799186823        0.7954534630       -0.6110048348
 C         -3.6283682991        1.9226064630       -1.1380525637
 C         -5.0461183498        1.4686076920       -1.5198358969
 C         -5.7271549357        0.5622216576       -0.4981218749
 H         -6.6807406441        0.2400003074       -0.9247614328
 H         -5.1200991998       -0.3328457713       -0.3516624296
 C         -6.0151810921        1.2083610889        0.8551095919
 H         -6.6370715184        2.0936762956        0.7049755931
 H         -6.5973315992        0.4904888265        1.4385949660
 C         -4.7893876143        1.6060703091        1.6811447908
 H         -4.3609011300        2.5387861038        1.3239067399
 H         -5.1333531365        1.7950903963        2.7021635651
 C         -3.7116156039        0.5306972663        1.7749843392
 H         -4.1715422241       -0.4115917342        2.0933919846
 H         -3.0198168542        0.7973688586        2.5829646152
 H         -5.6584734786        2.3563608007       -1.6874022955
 H         -4.9838889104        0.9195752592       -2.4626603308
 H         -3.6678550465        2.7364123869       -0.4200726379
 H         -3.1325490909        2.2942372219       -2.0373794063
 O         -1.9042094194        0.3970216227       -1.5739993787
 C         -1.0226674882       -0.6508744877       -1.3980113352
 O         -0.2870279785       -0.8480839819       -2.3878807055
 O         -1.9757249866       -1.5254921095        1.9708200654
 C         -0.1555105254       -2.5278987885        0.1025400804
 C          1.2253079631       -2.0712242009        0.5049476415
 C          1.7395388524       -2.3488494486        1.7657581207
 C          2.9928990841       -1.8901364988        2.1349176147
 C          3.7527352461       -1.1333898671        1.2601343052
 C          3.2418362296       -0.8468247308        0.0016625017
 C          1.9969974173       -1.3250940451       -0.3743568878
 H          1.6066135957       -1.0895330932       -1.3532458073
 N          3.9769693543       -0.0125689283       -0.8767200628
 S          4.0126967764        1.5881709172       -0.3768410536
 O          4.4203787580        2.3582276039       -1.5295547634
 O          4.8590289237        1.6847229626        0.7852104794
 C          2.3291882542        1.9790861594        0.0707983213
 C          1.4783901301        2.4735043157       -0.8967700871
 C          0.1618439933        2.7412717166       -0.5591273149
 C         -0.2834314837        2.4930740099        0.7297743703
 C          0.5789047274        1.9802537032        1.6858706941
 C          1.8998579204        1.7237270520        1.3579749597
 H          2.6025134202        1.3386990452        2.0785798777
 H          0.2241813554        1.7763513777        2.6835153790
 H         -1.3095605551        2.6965155239        0.9917757163
 H         -0.5135205994        3.1330007886       -1.3027952828
 H          1.8609717002        2.6529904854       -1.8890337131
 H          3.6147864104       -0.0437204650       -1.8208055281
 H          4.7162862645       -0.7386660094        1.5390447240
 H          3.3786198357       -2.1156932144        3.1174268572
 H          1.1417027083       -2.9132857427        2.4661352784
 H         -0.6083842606       -3.0278763037        0.9689970453
 C         -0.0865010648       -3.5192276327       -1.0426323136
 C          0.3161992099       -4.9335907512       -0.7565078589
 C         -1.1017937851       -4.6175029766       -1.1248239455
 H         -1.4631712862       -4.9125848455       -2.0984941825
 H         -1.8523473620       -4.6637009496       -0.3491733276
 H          0.9326136182       -5.4488591322       -1.4769912560
 H          0.5260328077       -5.1967248735        0.2691072929
 H          0.2446192357       -3.0798708827       -1.9745692958
