  62
        -98.94541669
 C          2.6460700375        1.0600641700        0.2773867425
 C          2.5459155523        0.3005330291       -0.9138795890
 C          3.1547880936       -1.0370630221       -0.8724567136
 C          3.7614580988       -1.4525036150        0.2542178739
 C          4.3686080452       -2.8107085152        0.4519410765
 C          3.3480334870       -3.7928369142        1.0440724992
 C          2.0034551608       -3.8029624966        0.3155507402
 H          1.3740514979       -4.5531870122        0.7999490396
 H          1.5073227716       -2.8386341038        0.4547232002
 C          2.0965018530       -4.1070072875       -1.1861987420
 H          3.0562753150       -4.5742349350       -1.4108761201
 H          1.3151166635       -4.8246217482       -1.4448939439
 C          1.8987435473       -2.8906055137       -2.0930163246
 H          0.9804955343       -2.3675423258       -1.8088633191
 H          1.7632381429       -3.2498979483       -3.1167909970
 C          3.0525167703       -1.8792436599       -2.1123450583
 H          3.9931117533       -2.3987170134       -2.3066976180
 H          2.8664568217       -1.1811476438       -2.9336653387
 H          3.7799170995       -4.7949035490        1.0233497428
 H          3.1692392127       -3.5211639090        2.0870997998
 H          4.7338301640       -3.1820367380       -0.5033056131
 H          5.2089756954       -2.7152363037        1.1414964219
 O          3.8446080914       -0.6906215742        1.3754401241
 C          3.2688902934        0.5694087615        1.4236532352
 O          3.3734593413        1.1412347306        2.5286356687
 H          0.3757150643        0.7230309967        1.5532472594
 C         -0.1683427210        1.3190390937        0.8288666190
 C          0.5164907199        2.2870997259        0.1036305587
 C         -0.1918256649        3.0450911524       -0.8181700780
 C         -1.5432583562        2.8191463952       -1.0188531730
 C         -2.2157671218        1.8436745992       -0.3063413697
 C         -1.5184969810        1.0871870259        0.6269494543
 N         -2.1962329961        0.0902384113        1.3597631143
 S         -2.8820582165       -1.1519290452        0.4519504434
 O         -2.9624933723       -2.2809655475        1.3540222953
 O         -2.1633165052       -1.3654903065       -0.7827397536
 C         -4.5255931851       -0.5568845948        0.1165726291
 C         -5.3371394748       -0.2539100842        1.1924791756
 C         -6.6185942140        0.2151602674        0.9520799354
 C         -7.0645755725        0.3699679122       -0.3522762309
 C         -6.2385593487        0.0577292324       -1.4212409749
 C         -4.9547152888       -0.4108565144       -1.1877964426
 H         -4.2733766795       -0.6591488958       -1.9859846606
 H         -6.5869847667        0.1786657426       -2.4343394516
 H         -8.0619696967        0.7365283579       -0.5368789897
 H         -7.2638288058        0.4592299481        1.7804988789
 H         -4.9513280137       -0.3920268521        2.1886775826
 H         -1.6312871090       -0.3077771200        2.0973226264
 H         -3.2657518317        1.6602715497       -0.4663584125
 H         -2.0794504225        3.4096379693       -1.7459177590
 H          0.3166401461        3.8027693432       -1.3911048734
 C          1.9985314493        2.4321970794        0.3540800635
 H          2.1388546717        2.7782820430        1.3886374295
 C          2.6859755591        3.4015356425       -0.5832294460
 C          2.6737792347        4.8701672518       -0.2862218224
 C          3.9388078438        4.0834031834       -0.1252529938
 H          4.7351962073        4.2312615794       -0.8389754954
 H          4.2848699867        3.8646042456        0.8747261068
 H          2.6049624873        5.5628869516       -1.1112111876
 H          2.1627952623        5.1947635559        0.6075363265
 H          2.6384455698        3.0844240822       -1.6183808362
 O          1.9786335279        0.7151824125       -1.9573752122
