  62
        -98.93359655
 C          1.6502802651        1.0940853708       -0.0091515723
 C          2.1320673738       -0.1513087950       -0.4807771116
 C          3.5977431809       -0.2776740765       -0.5861186545
 C          4.3790523685        0.7601456493       -0.2396047634
 C          5.8812497634        0.7581730816       -0.2217769468
 C          6.3911890900        0.0181827350        1.0313767821
 C          7.1493022803       -1.2758727668        0.7348296180
 H          8.1494386275       -1.0267054486        0.3740394745
 H          7.2640215829       -1.8114984558        1.6796035176
 C          6.5009917088       -2.2096596010       -0.2919239749
 H          6.7106161781       -1.8491153610       -1.3001260016
 H          6.9975245887       -3.1779210247       -0.1988730358
 C          4.9874570633       -2.4174193484       -0.1501658119
 H          4.7673983969       -3.4662535460       -0.3597290310
 H          4.6660236519       -2.2252052818        0.8737417330
 C          4.1313146792       -1.5790580916       -1.1180141036
 H          4.6932380215       -1.3958812305       -2.0383607504
 H          3.2415949477       -2.1570301424       -1.3860566223
 H          7.0491349288        0.6767791233        1.6003191571
 H          5.5342920375       -0.1997175944        1.6723200381
 H          6.2597397774        0.2871019575       -1.1261525872
 H          6.2068356185        1.7985369999       -0.2068558994
 O          3.8789917535        1.9345498950        0.2252953280
 C          2.5147443600        2.1261694749        0.3653875274
 O          2.2003277967        3.2381335500        0.8330652400
 O          1.3925195212       -1.1173247854       -0.8013591119
 C          0.1659108772        1.3685496156        0.1636842986
 C         -0.5190184274        0.1852948957        0.8008173517
 C         -0.1419301081       -0.1904852206        2.0881178801
 C         -0.7381533943       -1.2673879816        2.7136187294
 C         -1.7436314900       -1.9775754461        2.0803445232
 C         -2.1281788682       -1.6097074282        0.7975178153
 C         -1.5160162368       -0.5357711661        0.1646289477
 H         -1.8005425136       -0.3055445788       -0.8476132453
 N         -3.1463423401       -2.3030792136        0.1286626093
 S         -4.1985647227       -1.4787088747       -0.8684211194
 O         -5.4014307283       -2.2847017160       -0.8675132490
 O         -3.6062328249       -1.2449771372       -2.1609809032
 C         -4.5075344029        0.0775868783       -0.0493960251
 C         -4.9592366644        0.0583679665        1.2554243381
 C         -5.1885908280        1.2609320895        1.9035607979
 C         -4.9663052259        2.4574253476        1.2391640301
 C         -4.5225098506        2.4606303416       -0.0738778744
 C         -4.2894524102        1.2600502989       -0.7259219858
 H         -3.9393651526        1.2166558987       -1.7451492468
 H         -4.3528894818        3.3923160284       -0.5901641502
 H         -5.1408348449        3.3932680966        1.7461751698
 H         -5.5371560191        1.2623766319        2.9236860032
 H         -5.1302553442       -0.8872480457        1.7432838846
 H         -3.6084794032       -3.0197490629        0.6676267774
 H         -2.2139972252       -2.8180055973        2.5676336050
 H         -0.4256227328       -1.5534873968        3.7066523832
 H          0.6398652069        0.3682223908        2.5851950951
 H          0.1159617323        2.2071258435        0.8780733100
 C         -0.5314563025        1.8399429318       -1.1034152107
 C          0.2024779729        2.6064971915       -2.1614057909
 C         -0.2740756621        1.2137944953       -2.4395955621
 H         -1.1088985853        1.0729030123       -3.1115601838
 H          0.4533449562        0.4186677437       -2.4865330697
 H         -0.3035005305        3.4309919287       -2.6406461847
 H          1.2619057858        2.7663828999       -2.0223307179
 H         -1.5510902748        2.1553533428       -0.9032583137
