  62
        -98.93416605
 C          2.6377753119        0.3141027038       -0.0871677032
 C          2.1739842890        1.3097239098       -0.9765914674
 C          1.3331020435        2.3738683980       -0.4039377480
 C          1.0933896625        2.3755538074        0.9194658470
 C          0.1865365453        3.2613164765        1.7373198413
 C          0.0102379939        4.7315504311        1.3361357012
 C         -1.3125967373        5.0230250521        0.6223749008
 H         -2.0899395274        4.4029158608        1.0740892096
 H         -1.5807732773        6.0669764851        0.8004681522
 C         -1.3112964328        4.7999109285       -0.8882588788
 H         -0.6991530598        5.5665558221       -1.3683889740
 H         -2.3365086749        4.9307523985       -1.2423496403
 C         -0.8075864603        3.4283862801       -1.3372190004
 H         -1.1936526340        2.6418496591       -0.6854724383
 H         -1.1954587294        3.2346838589       -2.3401504797
 C          0.7266424801        3.3328199981       -1.3903526829
 H          1.0421202189        2.9666473203       -2.3720289448
 H          1.1733481369        4.3218895599       -1.2698398037
 H          0.8548882965        5.0597524142        0.7339135143
 H          0.0239613315        5.3176683218        2.2569408785
 H         -0.7871928059        2.7603690638        1.7649892597
 H          0.5867325694        3.2039407158        2.7532765095
 O          1.6493106018        1.4522042472        1.7554828189
 C          2.3508627003        0.3615599987        1.2763127374
 O          2.6762149974       -0.4644940272        2.1513453354
 H          0.7165061626       -0.8291840996       -1.3913198396
 C          0.9110419420       -1.7472845607       -0.8502035657
 C          2.2076753010       -2.0311238133       -0.4361733029
 C          2.4314159572       -3.2169707108        0.2485427290
 C          1.3749093748       -4.0609426287        0.5535362249
 C          0.0773403434       -3.7361012526        0.2002701313
 C         -0.1475952508       -2.5702699600       -0.5166515386
 N         -1.4848233998       -2.1712752222       -0.8206859979
 S         -2.0451515156       -1.1378505804        0.4051709644
 O         -1.4450289479        0.1743741020        0.2803619620
 O         -1.8683481177       -1.8120723086        1.6660651901
 C         -3.7804244944       -1.0456069036        0.0035449665
 C         -4.2803850312        0.0754852628       -0.6295051785
 C         -5.6246097769        0.1116346881       -0.9668503468
 C         -6.4392030847       -0.9705838895       -0.6713325355
 C         -5.9217638521       -2.0903762772       -0.0367472335
 C         -4.5795804571       -2.1317319845        0.3042830351
 H         -4.1330656515       -2.9748970863        0.8043701804
 H         -6.5586555490       -2.9294053929        0.1923115662
 H         -7.4843393942       -0.9403730486       -0.9359520848
 H         -6.0286233152        0.9818992939       -1.4585933750
 H         -3.6110723496        0.8955859603       -0.8361772566
 H         -1.5075477244       -1.6330093992       -1.6793758745
 H         -0.7570917715       -4.3556394629        0.4843594296
 H          1.5643333540       -4.9707302536        1.1027525996
 H          3.4287358945       -3.4666741592        0.5724782411
 C          3.2453207922       -0.9562740248       -0.6636851179
 H          3.3417737245       -0.7772447908       -1.7442028555
 C          4.6062872750       -1.2718341406       -0.0896218539
 C          5.5535217923       -2.1449651911       -0.8563174764
 C          5.8223454145       -0.6764134974       -0.7316210125
 H          6.6310300810       -0.3501726129       -0.0954035387
 H          5.6703446592       -0.0515935944       -1.5995323599
 H          6.1823818215       -2.8289558006       -0.3071503091
 H          5.2228779688       -2.5197725421       -1.8130755214
 H          4.5963612257       -1.3471482253        0.9913076564
 O          2.4134898446        1.2828608394       -2.2164801702
