  62
        -98.94172648
 C          2.2614367151        0.7355003105        0.0630106033
 C          3.4375377440        1.0700305811        0.7856146921
 C          4.3896410593       -0.0207485285        1.0284883457
 C          4.0806280916       -1.2633134247        0.6168811243
 C          4.9767811265       -2.4594152396        0.7518452503
 C          5.8684678966       -2.6275047920       -0.4865936412
 C          6.5870319083       -1.3462342015       -0.9100679006
 H          5.8462347151       -0.6164193924       -1.2449618572
 H          7.2074537593       -1.5925870592       -1.7744701099
 C          7.4606426675       -0.7163755142        0.1838844864
 H          8.4186862331       -0.4301724621       -0.2551102500
 H          7.6676476369       -1.4523850754        0.9615422594
 C          6.8695047518        0.5420687372        0.8220979355
 H          6.5764094824        1.2464927562        0.0394136716
 H          7.6518891505        1.0213930984        1.4163444978
 C          5.6657055536        0.3186450544        1.7460758628
 H          5.4718776147        1.2572840067        2.2733537860
 H          5.9067905063       -0.4473930253        2.4857924008
 H          5.2446463922       -2.9615709935       -1.3191003779
 H          6.6033516609       -3.4074498376       -0.2791450766
 H          5.5916210251       -2.3471256005        1.6428341521
 H          4.3511714491       -3.3468573760        0.8621619409
 O          2.9198576778       -1.5607201341       -0.0177257811
 C          1.9847424552       -0.5772594033       -0.3241604450
 O          0.9876329503       -1.0149982557       -0.9285874708
 H         -0.8065396729        0.9090159175       -1.7002207731
 C         -1.0519362649        0.9882589703       -0.6526533657
 C         -0.1034482579        1.4623141850        0.2386636362
 C         -0.4274745755        1.5198164863        1.5908803589
 C         -1.6735338011        1.1192948069        2.0344942663
 C         -2.6179192868        0.6432140811        1.1415303474
 C         -2.2955491618        0.5602715111       -0.2059155230
 N         -3.2399198482        0.0706288565       -1.1221665208
 S         -4.1762821412       -1.2581307437       -0.7110350610
 O         -3.5057476839       -2.1403706726        0.2152122113
 O         -4.5796334834       -1.8361366061       -1.9749166582
 C         -5.6056282238       -0.5295392959        0.0662874359
 C         -6.0202454124       -0.9776220021        1.3050808828
 C         -7.1408344886       -0.4041663195        1.8859760649
 C         -7.8249533184        0.6011730555        1.2203486339
 C         -7.3980801630        1.0379093138       -0.0249185369
 C         -6.2791795392        0.4682514764       -0.6109511370
 H         -5.9171693989        0.7770347776       -1.5772295932
 H         -7.9327050486        1.8198018933       -0.5398042556
 H         -8.6959252573        1.0465132522        1.6746627051
 H         -7.4740493262       -0.7435546222        2.8536239273
 H         -5.4544181166       -1.7588121277        1.7878842442
 H         -2.8775257623       -0.0235543880       -2.0600448577
 H         -3.5859408860        0.3149137735        1.4826662164
 H         -1.9132640756        1.1737169510        3.0856096674
 H          0.3154134107        1.8744762253        2.2920643867
 C          1.2783933422        1.8621433584       -0.2082661677
 H          1.6228289189        2.6807297576        0.4441840941
 C          1.3083157229        2.4040614954       -1.6298829510
 C          2.6101772577        2.5525441234       -2.3574607934
 C          1.5966975330        1.5562835921       -2.8309137656
 H          1.0594357220        1.7690598686       -3.7441010978
 H          1.7916970922        0.5064161651       -2.6777982395
 H          3.4971411444        2.1813132446       -1.8647829894
 H          2.7764142708        3.4415600421       -2.9467222403
 H          0.5853705736        3.2028065363       -1.7663905175
 O          3.6794599707        2.2317296367        1.2081348905
