  62
        -98.93114921
 C         -2.2052436834       -0.8462954026       -0.5729190338
 C         -3.4032902878       -0.9818034483        0.1735287312
 C         -4.3111391205        0.1783897535        0.2121805050
 C         -3.9742300850        1.2880044941       -0.4688289769
 C         -4.7220370686        2.5920573054       -0.5836471669
 C         -6.2374615252        2.4966788842       -0.8187921646
 C         -7.0685810830        2.9285348200        0.3905411927
 H         -6.5908610705        3.7971856679        0.8484188000
 H         -8.0542807751        3.2450156106        0.0422392802
 C         -7.2790841652        1.8500971791        1.4519551404
 H         -7.7582028677        2.3227674537        2.3126247181
 H         -7.9707852898        1.0965093306        1.0691143136
 C         -6.0090784704        1.1409647222        1.9268895228
 H         -6.2109413760        0.7225536532        2.9152874733
 H         -5.1936690378        1.8537077296        2.0450465370
 C         -5.5698138167       -0.0133257310        1.0135858761
 H         -5.3786638379       -0.9061894048        1.6169266083
 H         -6.3834824281       -0.2806771502        0.3330005897
 H         -6.5030404268        1.4841547038       -1.1187479304
 H         -6.4874198672        3.1559870126       -1.6515872920
 H         -4.2491450327        3.1173904442       -1.4164545449
 H         -4.5224569942        3.1854212078        0.3120749390
 O         -2.8116826440        1.3764079362       -1.1730816996
 C         -1.9003660946        0.3369168441       -1.2434398123
 O         -0.8943213145        0.6081216271       -1.9296708876
 O         -3.7078031154       -2.0407298703        0.7859459215
 C         -1.2766623317       -2.0489921734       -0.6034376080
 C         -0.1142349098       -1.8613173002        0.3430409160
 C         -0.0242097377       -2.6139665638        1.5081883541
 C          1.0424671241       -2.4473462366        2.3741407936
 C          2.0366023057       -1.5255126894        2.1003595349
 C          1.9527342775       -0.7638963830        0.9415762646
 C          0.8879625162       -0.9413589231        0.0687515748
 H          0.8182077689       -0.3362413421       -0.8231030164
 N          2.9381656345        0.2069363680        0.6634088232
 S          4.5471372035       -0.3071251692        0.7027305909
 O          4.7271293314       -1.4590187883       -0.1543525102
 O          4.9362186142       -0.4830932429        2.0793301095
 C          5.3756121377        1.1130107683        0.0181721435
 C          5.7281194677        1.1149462098       -1.3176924141
 C          6.3530332908        2.2345816391       -1.8441550210
 C          6.6096561808        3.3279404969       -1.0307767662
 C          6.2491019738        3.3109759932        0.3085234615
 C          5.6253716155        2.1943148120        0.8414642263
 H          5.3353334803        2.1327661694        1.8772616009
 H          6.4524579988        4.1625716490        0.9375439143
 H          7.0962346355        4.1977710304       -1.4430710638
 H          6.6364138138        2.2496579177       -2.8843226177
 H          5.5163480545        0.2396835815       -1.9109735601
 H          2.7496108125        0.6695550579       -0.2168706599
 H          2.8762580303       -1.3915336462        2.7626907506
 H          1.1008898952       -3.0408499533        3.2742152925
 H         -0.8038834148       -3.3263298816        1.7368132980
 H         -1.8807908188       -2.8837028425       -0.2235862658
 C         -0.8017331283       -2.3998144567       -1.9999815536
 C         -0.2691556148       -3.7757502749       -2.2603248957
 C         -1.5958684278       -3.3660252173       -2.8243693608
 H         -1.6751744214       -3.1920590057       -3.8869649754
 H         -2.4886425574       -3.7841524925       -2.3826999243
 H          0.5670006326       -3.8854566652       -2.9338153377
 H         -0.2613105158       -4.4720094862       -1.4352756095
 H         -0.3358325628       -1.5732382244       -2.5201791772
