  62
        -98.94522085
 C         -2.4529466311       -1.1942943349       -0.0704916490
 C         -3.5460949907       -0.8413570632        0.7608385979
 C         -4.4540347290        0.1806830901        0.2310384416
 C         -4.2173044597        0.7200555661       -0.9785621166
 C         -5.0603599104        1.7613470168       -1.6633333226
 C         -4.7468258069        3.2004250515       -1.2312404596
 C         -5.2234018005        3.5771313723        0.1721847521
 H         -5.1361323967        4.6619993769        0.2586587512
 H         -6.2794947345        3.3260308119        0.2753693124
 C         -4.4233822087        2.9260405586        1.3091526099
 H         -3.4736199658        2.5518682068        0.9189603896
 H         -4.1830406247        3.6794711849        2.0626753587
 C         -5.1499110067        1.7864368693        2.0236610939
 H         -6.0338523075        2.1775821364        2.5320920815
 H         -4.4788063367        1.3753501214        2.7818904351
 C         -5.5841674493        0.6386142579        1.1028979214
 H         -5.8855232320       -0.2061733284        1.7269444090
 H         -6.4341649981        0.9453574469        0.4940153571
 H         -5.2311069360        3.8680935452       -1.9476470607
 H         -3.6683497938        3.3601102197       -1.3055970060
 H         -6.1160056845        1.5498803767       -1.4907019497
 H         -4.8573462839        1.6714219708       -2.7326691577
 O         -3.1600232041        0.3514031189       -1.7491893567
 C         -2.2432459976       -0.5949959427       -1.3124329633
 O         -1.3190039337       -0.8116745472       -2.1208962406
 O         -3.7545993276       -1.3610953022        1.8887371361
 C         -1.4673911449       -2.2288004276        0.4487428684
 C         -0.1615205499       -1.5288452561        0.7309222942
 C         -0.0220012182       -0.8053435340        1.9126140301
 C          1.1336919827       -0.0938143775        2.1721288258
 C          2.1712138668       -0.0791893027        1.2554087887
 C          2.0338799027       -0.7816179945        0.0665262297
 C          0.8809336935       -1.5156207743       -0.1818251171
 H          0.7841794085       -2.0468876624       -1.1152946333
 N          3.0752980231       -0.7648634809       -0.8769872869
 S          3.7863339934        0.7073302391       -1.2558029538
 O          2.8724150591        1.8125182477       -1.0800069640
 O          4.3366580912        0.5304453504       -2.5822923470
 C          5.1290278023        0.8322157772       -0.0905936221
 C          5.2777287911        1.9751552975        0.6703164250
 C          6.3365729628        2.0545556180        1.5617552910
 C          7.2241669994        0.9956363093        1.6749463716
 C          7.0627825607       -0.1442769836        0.9014220931
 C          6.0071533301       -0.2294746661        0.0079048639
 H          5.8476969274       -1.0958105703       -0.6119443704
 H          7.7548778321       -0.9658626186        0.9923885867
 H          8.0463025094        1.0592420651        2.3701617270
 H          6.4632506146        2.9403010443        2.1633923945
 H          4.5590910829        2.7708316742        0.5529889553
 H          2.8582957744       -1.2786920959       -1.7191822970
 H          3.0703879412        0.4839242909        1.4447902170
 H          1.2291377711        0.4586420218        3.0945635022
 H         -0.8408131414       -0.7985696110        2.6186512736
 H         -1.8855916435       -2.5708921647        1.4050209441
 C         -1.3441681104       -3.4171256441       -0.4809331621
 C         -0.7071978097       -4.6773856985        0.0211912682
 C         -2.1838673830       -4.6319408395       -0.2287231759
 H         -2.5814969464       -5.1671842235       -1.0779863055
 H         -2.8472928162       -4.6118340554        0.6233218259
 H         -0.0886312425       -5.2479323561       -0.6545729954
 H         -0.3664184594       -4.6869704970        1.0453135356
 H         -1.1783423176       -3.1396250904       -1.5149376713
