  62
        -98.93790079
 C         -2.3200709254       -1.2850188442       -0.0929050622
 C         -3.3889342504       -0.9450588423        0.7746617967
 C         -4.3110640018        0.0965842664        0.3010434875
 C         -4.0921851728        0.6666807017       -0.8977364991
 C         -4.8900803517        1.7955246464       -1.4860590713
 C         -4.4836026367        3.1289192170       -0.8265559509
 C         -5.5889196013        3.7861322184        0.0006832627
 H         -5.1279755901        4.5869630181        0.5827855706
 H         -6.3123165573        4.2453374834       -0.6763276746
 C         -6.3566821647        2.8587183749        0.9476230346
 H         -6.9070745857        3.4983272784        1.6407872700
 H         -7.1026896097        2.2957725395        0.3848062621
 C         -5.5053023758        1.8725018616        1.7575952229
 H         -5.9255581001        1.8073008554        2.7631968999
 H         -4.4848807127        2.2417362950        1.8632820323
 C         -5.4726305133        0.4402804763        1.1921159531
 H         -5.4015668024       -0.2630946800        2.0268417196
 H         -6.4089530253        0.2336515118        0.6666504028
 H         -4.1678187494        3.8342271535       -1.5969562648
 H         -3.6113354741        2.9467945673       -0.1947083431
 H         -5.9522046562        1.6070251465       -1.3459271731
 H         -4.6770508201        1.8206079135       -2.5549723654
 O         -3.0508087892        0.3222128658       -1.6979724797
 C         -2.1377634910       -0.6529320638       -1.3223795108
 O         -1.2440315147       -0.8556730378       -2.1676970024
 O         -3.5661284545       -1.4951485282        1.8941094452
 C         -1.3396053557       -2.3488510025        0.3760705458
 C         -0.0320871596       -1.6722981074        0.7056075223
 C          0.1506823025       -1.1142168485        1.9678230882
 C          1.3105445330       -0.4276655443        2.2745217431
 C          2.3069439813       -0.2714252068        1.3263717186
 C          2.1250156091       -0.8070306417        0.0589917098
 C          0.9710567425       -1.5195018283       -0.2389380902
 H          0.8368952836       -1.9178012693       -1.2322038934
 N          3.1219064091       -0.6350352444       -0.9181890078
 S          3.7209529484        0.9165003598       -1.1551175303
 O          2.7552113839        1.9278427815       -0.7911894185
 O          4.1952347760        0.9377758692       -2.5218789318
 C          5.1259812035        0.9903857230       -0.0613070218
 C          5.2272988616        2.0089686822        0.8658256775
 C          6.3345989709        2.0496081841        1.6991224728
 C          7.3163863156        1.0768748752        1.5901905714
 C          7.2011496989        0.0618164059        0.6519996823
 C          6.0974940344        0.0162515622       -0.1845549830
 H          5.9714749526       -0.7522690826       -0.9286497729
 H          7.9667059984       -0.6928077052        0.5699971380
 H          8.1764198288        1.1103235067        2.2401918025
 H          6.4257266110        2.8384578512        2.4284636529
 H          4.4365444005        2.7406654001        0.9177436462
 H          2.8813346655       -1.0546787313       -1.8053223841
 H          3.2085690232        0.2735498858        1.5534887629
 H          1.4402686813       -0.0053370630        3.2593894865
 H         -0.6375709899       -1.2137017617        2.7008530464
 H         -1.7647746709       -2.7399753031        1.3099262545
 C         -1.2061886501       -3.4891837081       -0.6111614152
 C         -0.5590717652       -4.7659916607       -0.1673019613
 C         -2.0352253913       -4.7224148014       -0.4204193950
 H         -2.4249074862       -5.2199400387       -1.2958987624
 H         -2.7013015437       -4.7500735813        0.4293732626
 H          0.0676229511       -5.2972249945       -0.8670945322
 H         -0.2218551616       -4.8213444029        0.8565791437
 H         -1.0387466566       -3.1625044582       -1.6300020444
