  62
        -98.93106200
 C         -2.4264121862       -1.2757574754        0.4204150460
 C         -2.4654349113       -0.0557664344       -0.2941034431
 C         -3.7197035773        0.7230324358       -0.2020251200
 C         -4.7356454586        0.2505885207        0.5405481672
 C         -6.0969744916        0.8536450932        0.7779718438
 C         -6.8190225087        1.4246251374       -0.4522593873
 C         -6.9141007015        2.9511227306       -0.4460485399
 H         -7.1264729272        3.2818646280        0.5727479010
 H         -7.7599511103        3.2511253016       -1.0686783252
 C         -5.6761305622        3.6795409241       -0.9663606074
 H         -5.8168071159        4.7462974780       -0.7768887113
 H         -5.6087263600        3.5485898838       -2.0486216560
 C         -4.3481307401        3.2423001972       -0.3443110866
 H         -4.4622778573        3.0797048086        0.7267255093
 H         -3.6371100454        4.0620096454       -0.4672888058
 C         -3.7390020373        1.9961036513       -1.0038029160
 H         -2.6876017515        2.1849199963       -1.2428972647
 H         -4.2335427685        1.8016400627       -1.9603088586
 H         -7.8339833669        1.0238086451       -0.4587485033
 H         -6.3307714955        1.0792932051       -1.3623769273
 H         -6.0060598416        1.6253946482        1.5462336065
 H         -6.6903942925        0.0478941211        1.2161408006
 O         -4.6374071394       -0.9137760938        1.2453977560
 C         -3.4966417006       -1.6916372581        1.2157284841
 O         -3.5536714272       -2.7125073079        1.9299719486
 O         -1.5097380705        0.3803692903       -0.9863922142
 C         -1.2044991901       -2.1784523107        0.4133451580
 C          0.0492057522       -1.3690348605        0.6343698246
 C          0.2452179302       -0.7668041522        1.8740836006
 C          1.3827387194       -0.0253339075        2.1289332998
 C          2.3515241561        0.1315762028        1.1531017190
 C          2.1652675438       -0.4623745552       -0.0868917836
 C          1.0227587632       -1.2110032167       -0.3385643240
 H          0.8824973177       -1.6494029084       -1.3146062878
 N          3.1436221365       -0.2953590271       -1.0836037900
 S          4.7246510846       -0.7106808087       -0.7060779559
 O          5.3497831881       -1.0237794809       -1.9729545006
 O          4.7711825163       -1.7430728279        0.3040375013
 C          5.4299731411        0.7953526029       -0.0702976885
 C          5.3947463311        1.9206918452       -0.8702157931
 C          5.9501295538        3.0974200950       -0.3938601881
 C          6.5306340733        3.1281198596        0.8655328921
 C          6.5606440387        1.9889153887        1.6551591859
 C          6.0058336621        0.8087487711        1.1848925984
 H          6.0013279087       -0.1001314147        1.7652801875
 H          7.0124093147        2.0148133657        2.6338271668
 H          6.9621985006        4.0455074966        1.2336449117
 H          5.9282745468        3.9856400070       -1.0046225601
 H          4.9374761493        1.8544782497       -1.8433924764
 H          2.8767727781       -0.6727473014       -1.9813610517
 H          3.2407413282        0.7105735904        1.3427830807
 H          1.5174808339        0.4365135003        3.0953526185
 H         -0.5132930652       -0.8869813517        2.6362204093
 H         -1.3348180349       -2.8327900499        1.2911738375
 C         -1.1177058442       -3.0983244026       -0.7959693667
 C         -2.3592928534       -3.6402934144       -1.4372755639
 C         -1.5000437031       -2.6617053008       -2.1771454877
 H         -0.9131287463       -3.0249927204       -3.0087436750
 H         -1.8575635206       -1.6522744140       -2.3036841058
 H         -2.3633757405       -4.6709788828       -1.7586336487
 H         -3.3089847334       -3.2997406507       -1.0508231672
 H         -0.2796007458       -3.7852221003       -0.7169410440
