  62
        -98.93819941
 C          1.7758832517       -0.2400116923        0.8757374532
 C          2.9324184119        0.5661979049        1.0232679990
 C          4.2135876975       -0.0904517384        0.7077715467
 C          4.2260697322       -1.3746457173        0.3107655365
 C          5.4519913777       -2.1368447479       -0.0998078852
 C          5.7012568596       -2.0167034793       -1.6097960342
 C          5.6473101023       -0.5811905158       -2.1327047826
 H          4.6284481637       -0.2013539437       -2.0268844462
 H          5.8671216843       -0.6161621129       -3.2019873867
 C          6.6217859233        0.3830682217       -1.4419936634
 H          7.1148613467        0.9889885980       -2.2051879944
 H          7.3987271552       -0.1819732155       -0.9257095050
 C          5.9642284878        1.3535759399       -0.4591412663
 H          5.1251191670        1.8561122714       -0.9468697207
 H          6.6972543457        2.1215231935       -0.1977088245
 C          5.4604181868        0.7366296795        0.8517239429
 H          5.1987636926        1.5580177452        1.5253624889
 H          6.2588658635        0.1533642937        1.3147637598
 H          4.9404785790       -2.5999898734       -2.1336124121
 H          6.6771414303       -2.4512063757       -1.8342051959
 H          6.3104968303       -1.7588413064        0.4519304896
 H          5.3035074507       -3.1881301538        0.1524273983
 O          3.0974925357       -2.1197512093        0.1908649266
 C          1.8554912349       -1.5722661417        0.4595590338
 O          0.9044240864       -2.3646445131        0.3037245252
 H         -2.1129532958       -0.0922909785        0.1804413375
 C         -1.5561118992        0.6214824943       -0.4065949423
 C         -0.2420987995        0.9095194697       -0.0691789653
 C          0.4693538463        1.8079697060       -0.8572106277
 C         -0.1285919852        2.4017636188       -1.9538928576
 C         -1.4497664563        2.1352558608       -2.2681074229
 C         -2.1708980345        1.2428541770       -1.4843385448
 N         -3.5132246799        0.9511179855       -1.7630268126
 S         -4.5991539351        0.8172755854       -0.4925172694
 O         -5.8852110808        1.1267307379       -1.0788477213
 O         -4.1955697126        1.6295160781        0.6304398408
 C         -4.5627507012       -0.9078381398       -0.0579522315
 C         -4.2844870242       -1.2837121643        1.2410209141
 C         -4.2731356091       -2.6322128817        1.5607881644
 C         -4.5407142461       -3.5756029439        0.5810529916
 C         -4.8226075972       -3.1814318728       -0.7183594018
 C         -4.8352104049       -1.8350578902       -1.0441902012
 H         -5.0537785562       -1.4894944405       -2.0408061695
 H         -5.0298608844       -3.9193056611       -1.4766070354
 H         -4.5284415860       -4.6243038959        0.8328828160
 H         -4.0524204627       -2.9401921907        2.5703157272
 H         -4.0770806645       -0.5184122011        1.9729288232
 H         -3.9061334210        1.4589904606       -2.5421139187
 H         -1.9198778392        2.6142281254       -3.1136748374
 H          0.4352301139        3.0937379996       -2.5615206308
 H          1.4891180256        2.0456588928       -0.5953954454
 C          0.3676717928        0.2615337198        1.1470765184
 H         -0.2226750886       -0.6438556593        1.3619744668
 C          0.2728465608        1.1550056638        2.3771609174
 C          0.0913856247        2.6381881097        2.3136611577
 C         -1.0386122066        1.7688363202        2.7721589561
 H         -1.3055077708        1.7796533599        3.8185629256
 H         -1.8816750218        1.6523595002        2.1056456289
 H          0.0152649205        3.1008382891        1.3422664651
 H          0.6197256273        3.2391203168        3.0379434197
 H          0.8948872664        0.7854512200        3.1867177883
 O          2.9225445870        1.7678319965        1.3918900156
