  62
        -98.93446254
 C         -2.4519146185       -1.2890873589        0.1113759578
 C         -3.3156922886       -0.6274637134        1.0197258664
 C         -4.2839487836        0.3363482305        0.4634543717
 C         -4.3103772671        0.5245214855       -0.8686231165
 C         -5.1721976648        1.4707304938       -1.6612889840
 C         -4.6965141230        2.9293346381       -1.5606307859
 C         -4.3058787387        3.3830267962       -0.1563238058
 H         -3.5178378530        2.7309246210        0.2251902965
 H         -3.8830286874        4.3878310509       -0.2382061336
 C         -5.4513597046        3.4396914022        0.8515955175
 H         -5.0476243049        3.8570989896        1.7775217770
 H         -6.2174073653        4.1263163833        0.4843241637
 C         -6.1173722864        2.1030848833        1.1849078818
 H         -6.7347244394        2.2607240472        2.0741144911
 H         -6.7928306417        1.7930366522        0.3921067477
 C         -5.1485707667        0.9744095886        1.5237477410
 H         -4.4621254836        1.3133544679        2.3078825743
 H         -5.7158554499        0.1514680027        1.9751517334
 H         -5.4843397067        3.5766573679       -1.9494550395
 H         -3.8193283202        3.0427588379       -2.2024941847
 H         -5.1070022384        1.1549305506       -2.7049359114
 H         -6.2090413198        1.3783712075       -1.3519445819
 O         -3.4680333137       -0.1399469032       -1.7086545193
 C         -2.5199620003       -1.0450214724       -1.2598975136
 O         -1.8296127513       -1.5363700381       -2.1740419943
 H          0.0200322816       -0.7929330574       -1.0008326231
 C          0.5048657108       -0.9013736600       -0.0413363241
 C         -0.1216582787       -1.6337381901        0.9575346979
 C          0.5244589632       -1.7780032458        2.1795315747
 C          1.7661950020       -1.2041472066        2.3911497099
 C          2.3857686566       -0.4735096458        1.3932192788
 C          1.7482432934       -0.3223511485        0.1685343027
 N          2.3604965394        0.4302315331       -0.8495389237
 S          3.9435581381        0.0465716240       -1.2605346421
 O          4.1039215548        0.4957456142       -2.6259631324
 O          4.2332486027       -1.3450480858       -1.0023842028
 C          4.9198765067        1.0832034361       -0.1916334465
 C          5.9022497469        0.5251179952        0.6025830675
 C          6.6562519753        1.3551662152        1.4178122868
 C          6.4163170776        2.7206292862        1.4233284736
 C          5.4273264246        3.2656084541        0.6177525455
 C          4.6707066901        2.4417352110       -0.2000241551
 H          3.8942401024        2.8242816510       -0.8414645314
 H          5.2432690195        4.3278829213        0.6249067120
 H          7.0032591081        3.3644319200        2.0591744720
 H          7.4255892610        0.9336355021        2.0445336773
 H          6.0486313762       -0.5426997308        0.5695596607
 H          1.7910531744        0.5115801777       -1.6800872667
 H          3.3524305033       -0.0242672256        1.5519940474
 H          2.2567075578       -1.3246012803        3.3448221216
 H          0.0423094617       -2.3364753791        2.9684080753
 C         -1.4631834235       -2.2747628945        0.7078590585
 H         -1.8902202907       -2.5359961560        1.6890203169
 C         -1.3537805623       -3.5645984581       -0.0952261800
 C         -0.1462627572       -3.9532062097       -0.8894700554
 C         -0.4678797479       -4.6773340778        0.3814268142
 H         -0.8326325723       -5.6915170917        0.3236853167
 H          0.1612720584       -4.4796267176        1.2361237231
 H         -0.3090551001       -4.4526439998       -1.8325891195
 H          0.7040382621       -3.2884672336       -0.8983096450
 H         -2.3110153042       -3.8550091967       -0.5172120915
 O         -3.2830301179       -0.8342142665        2.2627460746
