  62
        -98.94054796
 C         -2.6412188030       -1.3142157630       -0.1682803986
 C         -2.3839208190       -0.1374969519       -0.9122993564
 C         -3.5259913912        0.7706528154       -1.0785032847
 C         -4.7243516338        0.4437817511       -0.5614914255
 C         -5.9886291639        1.2519263542       -0.6737534527
 C         -6.1180056234        2.3582008418        0.3820954497
 C         -5.1942194025        3.5600353255        0.1806668845
 H         -5.3042796575        3.9356392831       -0.8370611585
 H         -5.5376427759        4.3453704837        0.8568908360
 C         -3.7131747751        3.2754608368        0.4684509479
 H         -3.6234266375        2.3553640297        1.0509441230
 H         -3.2984878316        4.0798107631        1.0803891116
 C         -2.8348887483        3.1579467769       -0.7774826244
 H         -2.8061999854        4.1185338660       -1.2969120614
 H         -1.8169111437        2.9185700545       -0.4569526388
 C         -3.2873518715        2.0787202148       -1.7700537570
 H         -4.1853834063        2.4033508590       -2.2952438277
 H         -2.4877831154        1.9283403113       -2.4994729398
 H         -5.9389858458        1.9230510870        1.3680165233
 H         -7.1509150102        2.7128768821        0.3577659711
 H         -6.0571935096        1.6886251912       -1.6703440020
 H         -6.8167266369        0.5522820663       -0.5419221927
 O         -4.9340113690       -0.7081898325        0.1297746973
 C         -3.8978389103       -1.5958910337        0.3684839145
 O         -4.2178836870       -2.5866755670        1.0561140503
 H          1.1101158620       -1.8104917827       -0.5823788210
 C          0.8479169739       -1.4300597619        0.3921484544
 C         -0.4345032161       -1.6103870069        0.8810247428
 C         -0.7478840989       -1.0943563082        2.1363877117
 C          0.1991090049       -0.4147644792        2.8769886157
 C          1.4804523774       -0.2343993132        2.3842847396
 C          1.8022224462       -0.7414030026        1.1336592225
 N          3.1062942703       -0.5888096156        0.6268165500
 S          3.8901262722        0.8880823773        0.8650308639
 O          4.3779060073        0.9308203906        2.2214610954
 O          3.0386920056        1.9864731202        0.4661884816
 C          5.2610947912        0.7129829601       -0.2596086120
 C          6.3789615948        0.0170126159        0.1599135683
 C          7.4352643735       -0.1470200659       -0.7218345534
 C          7.3566529480        0.3843956884       -2.0006408016
 C          6.2287500055        1.0817329518       -2.4066484135
 C          5.1677338155        1.2480511816       -1.5302836062
 H          4.2745183220        1.7887864029       -1.8005443782
 H          6.1712949678        1.4959763772       -3.4004333079
 H          8.1802835834        0.2566223517       -2.6852272728
 H          8.3147458956       -0.6867841140       -0.4098917541
 H          6.3983525933       -0.3695101372        1.1653590950
 H          3.1639401709       -0.8650648025       -0.3443595772
 H          2.2252551612        0.3042492646        2.9472905515
 H         -0.0597683273       -0.0167565088        3.8470861652
 H         -1.7518112653       -1.2274138051        2.5178381618
 C         -1.5234393625       -2.3071826929        0.1013482100
 H         -1.9570931218       -3.0851161767        0.7452908713
 C         -1.0551786421       -2.9465906866       -1.1882922943
 C         -0.3442073617       -4.2651962083       -1.1528414787
 C         -1.7459240751       -4.1829599620       -1.6763179907
 H         -1.9093768437       -4.2966296797       -2.7374851520
 H         -2.5463877976       -4.5775495879       -1.0675420483
 H         -0.1899051822       -4.7217534548       -0.1869669990
 H          0.4550116579       -4.4410478565       -1.8568135261
 H         -0.7537060361       -2.2193875488       -1.9331041699
 O         -1.2660813441        0.1409074243       -1.4202200766
