  62
        -98.94739081
 C          2.5399554002        0.2138647126       -0.0151025381
 C          2.2564115760        1.2335979391       -0.9534632081
 C          1.7052914587        2.4761723142       -0.4032264853
 C          1.5101583160        2.5885844029        0.9233735099
 C          0.9840776399        3.8016047138        1.6423705279
 C         -0.5473948484        3.8954321690        1.6601860167
 C         -1.1840614193        4.3005469694        0.3304032649
 H         -2.2229086067        4.5647409369        0.5374716060
 H         -0.6891650804        5.1929515935       -0.0548719969
 C         -1.1623601117        3.1950498604       -0.7337024225
 H         -2.1414195097        3.1271439038       -1.2152014456
 H         -0.9883135183        2.2275575532       -0.2563732020
 C         -0.1325600509        3.3901122580       -1.8468846873
 H         -0.4006870824        4.2639232483       -2.4461844126
 H         -0.1749576710        2.5089798544       -2.4932725184
 C          1.3130641033        3.5597342551       -1.3620337346
 H          1.9740854723        3.4889691989       -2.2298164063
 H          1.4418107798        4.5396858238       -0.9019720434
 H         -0.9501905865        2.9284554447        1.9718732093
 H         -0.8217254295        4.6362303162        2.4150260897
 H          1.3376611475        3.7266715746        2.6730069240
 H          1.4018755606        4.7040563618        1.1947060133
 O          1.8084362960        1.5896611994        1.7951824600
 C          2.2818093405        0.3670318298        1.3470214535
 O          2.4547357002       -0.4769447829        2.2483254024
 O          2.4619390782        1.1122441570       -2.1928893206
 C          3.0214395753       -1.1387791617       -0.5120226673
 C          1.9825154459       -2.1719716966       -0.1494063983
 C          2.2648033130       -3.3783156250        0.4764441515
 C          1.2359810393       -4.2295035499        0.8440955585
 C         -0.0846426134       -3.8917631952        0.6140299656
 C         -0.3751056582       -2.6958898257       -0.0346519769
 C          0.6575263728       -1.8662904687       -0.4337589819
 H          0.4233997865       -0.9400541960       -0.9388127949
 N         -1.7020418511       -2.3144473315       -0.3033972465
 S         -2.0437913988       -0.6581127562       -0.3164426990
 O         -1.7189637138       -0.1388275735       -1.6210050209
 O         -1.4306431107       -0.0060311816        0.8189035811
 C         -3.8162545055       -0.6978052901       -0.1254439381
 C         -4.5890111311       -1.0234563186       -1.2244622189
 C         -5.9655551169       -1.0885274517       -1.0798291410
 C         -6.5436635963       -0.8273933944        0.1538551625
 C         -5.7558627876       -0.4981427724        1.2464669575
 C         -4.3777869803       -0.4337414959        1.1089796692
 H         -3.7244383527       -0.1765104778        1.9274932463
 H         -6.2075994194       -0.2915606833        2.2032959206
 H         -7.6153410564       -0.8781060161        0.2637893550
 H         -6.5813284316       -1.3411833474       -1.9277749009
 H         -4.0943953225       -1.2070718662       -2.1639152654
 H         -2.3774713569       -2.8338399950        0.2408053376
 H         -0.8847576695       -4.5422041257        0.9331001495
 H          1.4666728988       -5.1605339059        1.3394743867
 H          3.2862590525       -3.6436631021        0.6945362650
 H          3.0609321959       -1.0528370995       -1.6085227621
 C          4.4069199990       -1.4552833248        0.0073975799
 C          5.3124238658       -2.3637238494       -0.7682619065
 C          5.5962628120       -0.8937640607       -0.7103104327
 H          6.4361636506       -0.5506871819       -0.1252537351
 H          5.4058480898       -0.2986098173       -1.5915611806
 H          5.9625908742       -3.0312335225       -0.2233446235
 H          4.9363437149       -2.7703300892       -1.6948144331
 H          4.4451571580       -1.4910863620        1.0902920676
