  62
        -98.93217483
 C         -2.5968435903       -1.0734924898       -0.1323283506
 C         -2.2968587002       -0.0482462497       -1.0619753205
 C         -2.8210471799        1.2994732903       -0.7456711304
 C         -3.5720905299        1.4855009504        0.3541061396
 C         -4.2719355897        2.7140029404        0.8997596297
 C         -3.9811075995        4.0969566404        0.3242783098
 C         -2.5828487794        4.6340228102        0.6338922099
 H         -2.4260350192        5.5443943402        0.0517571199
 H         -2.5445807893        4.9041277101        1.6921836999
 C         -1.4289822795        3.6697546500        0.3688950498
 H         -1.5433283397        2.7756075200        0.9853527097
 H         -0.5019346495        4.1553793298        0.6850626898
 C         -1.2439978196        3.2406365201       -1.0847635503
 H         -1.1025474095        4.1211709301       -1.7156810002
 H         -0.3299935697        2.6407607400       -1.1309637703
 C         -2.3851996898        2.3963151903       -1.6738298903
 H         -3.2266526397        3.0185179205       -1.9693622303
 H         -2.0069963999        1.9032812004       -2.5746674404
 H         -4.1684455795        4.1029906106       -0.7454669002
 H         -4.7043460993        4.7815935805        0.7756523499
 H         -4.0668441797        2.7220834603        1.9750214797
 H         -5.3434402697        2.5120704406        0.7931135197
 O         -3.8768670300        0.4514707703        1.1949100495
 C         -3.3737803603       -0.8197266997        0.9988856094
 O         -3.6996393204       -1.6384631997        1.8831958993
 O         -1.6411341402       -0.2203886597       -2.1209494006
 C         -2.0618376305       -2.4926009798       -0.2298544108
 C         -0.7816754905       -2.6237357201        0.5576517292
 C         -0.5601557907       -3.7257962602        1.3758356891
 C          0.6212215893       -3.8485073805        2.0852503791
 C          1.6031541294       -2.8800268906        1.9872593592
 C          1.3852537396       -1.7650861205        1.1841992493
 C          0.1976892496       -1.6440720003        0.4774322493
 H          0.0438151697       -0.7771574602       -0.1470605806
 N          2.3454464298       -0.7444863607        1.1057170993
 S          2.4903518899        0.1252829994       -0.3364381306
 O          1.4990187301        1.1687022696       -0.3521971705
 O          2.5114638997       -0.7865731305       -1.4572434607
 C          4.1044025600        0.8465192592       -0.1007466105
 C          4.2149918202        1.9707282791        0.6957129595
 C          5.4689571403        2.5206885289        0.9086362796
 C          6.5856283802        1.9408636087        0.3246949795
 C          6.4589308100        0.8146726188       -0.4744498406
 C          5.2075227399        0.2585485990       -0.6897656906
 H          5.0587764398       -0.6107507609       -1.3099996807
 H          7.3280906799        0.3685657087       -0.9302206006
 H          7.5602705203        2.3717320086        0.4908733095
 H          5.5704286304        3.3981858388        1.5266292996
 H          3.3174900003        2.3912395792        1.1188175896
 H          3.2471613197       -1.0219621008        1.4688568293
 H          2.5268735294       -2.9757966908        2.5373249192
 H          0.7812825691       -4.7087620405        2.7172405290
 H         -1.3281704508       -4.4803329501        1.4630167991
 H         -2.8161514206       -3.1255386197        0.2666413092
 C         -1.9181520006       -3.0023586797       -1.6564178208
 C         -0.6112903907       -3.0675669599       -2.3815831708
 C         -1.2735370309       -4.3306571798       -1.9247014009
 H         -1.7173883910       -4.9776019097       -2.6661867710
 H         -0.8322091609       -4.8507138500       -1.0880906910
 H         -0.6144734406       -2.8243252798       -3.4333262008
 H          0.2778903794       -2.7259948001       -1.8728896708
 H         -2.7855358006       -2.7515441195       -2.2588596108
