  62
        -98.93831792
 C         -1.3205860895       -1.5464995580       -0.5756492341
 C         -2.5322994602       -1.5535358622        0.1575262670
 C         -3.5587297277       -0.5672563380       -0.2190360275
 C         -3.2999112001        0.2989696770       -1.2160903484
 C         -4.1426906895        1.3950454913       -1.8351025607
 C         -5.4384459877        1.8505100752       -1.1703141130
 C         -5.2473708010        2.6007041434        0.1479575691
 H         -4.8053276406        3.5762485629       -0.0704892647
 H         -6.2305896811        2.7722092944        0.5915660388
 C         -4.3511599267        1.9143680523        1.1761101567
 H         -4.2801796861        2.5704381444        2.0483380611
 H         -3.3402122720        1.8119748363        0.7741466153
 C         -4.8377420881        0.5499166486        1.6601620713
 H         -5.8542354005        0.6395341348        2.0487378034
 H         -4.1886588548        0.2437571356        2.4852613596
 C         -4.8111420168       -0.5724325489        0.6096319917
 H         -4.8213377148       -1.5296267416        1.1394700236
 H         -5.6936232190       -0.5400208933       -0.0248460368
 H         -6.1093703801        1.0067708964       -1.0382704500
 H         -5.9242433390        2.5352398399       -1.8707996907
 H         -4.3742207613        1.0533007757       -2.8501339942
 H         -3.4741662521        2.2555380882       -1.9452597010
 O         -2.1234677534        0.2636478296       -1.9035397190
 C         -1.0996710907       -0.6230414542       -1.5969796143
 O         -0.0921589572       -0.4800434698       -2.3130382518
 O         -2.7546486232       -2.3704640956        1.0928146615
 C         -0.2633883491       -2.5439856391       -0.1393313512
 C          0.5698045840       -1.9815728040        0.9872044890
 C          0.9787038065       -2.7853887092        2.0454369269
 C          1.7400078365       -2.2574394841        3.0731902024
 C          2.0970886213       -0.9214445428        3.0721380965
 C          1.6763691184       -0.1029014051        2.0280749252
 C          0.9317253121       -0.6424759050        0.9893341660
 H          0.6023587256        0.0006752094        0.1902537649
 N          1.9700894602        1.2628674492        2.0403901232
 S          1.9884150511        2.2451806043        0.6940262028
 O          2.5034427653        3.4991453491        1.2037729387
 O          0.6831506005        2.2999790125        0.0859086275
 C          3.2042526159        1.5313023797       -0.3971419694
 C          4.5293851224        1.6818180749       -0.0303082160
 C          5.5175790087        1.1401940267       -0.8338099476
 C          5.1663001531        0.4612690383       -1.9915949537
 C          3.8345805739        0.3228406694       -2.3462783925
 C          2.8370674386        0.8572906814       -1.5428600056
 H          1.7951866473        0.7433106800       -1.8006746701
 H          3.5537103311       -0.2019077581       -3.2452404490
 H          5.9335627732        0.0399519852       -2.6217390525
 H          6.5542453346        1.2494129426       -0.5589378588
 H          4.7593966735        2.2365657833        0.8647136892
 H          2.5976985441        1.5760707442        2.7641560708
 H          2.6784950301       -0.5062315951        3.8807145121
 H          2.0529059819       -2.8909683307        3.8890836456
 H          0.6766709199       -3.8218782919        2.0719308118
 H         -0.8289609512       -3.3961597284        0.2719401064
 C          0.5856738676       -3.0702563785       -1.2874161490
 C          2.0107804491       -2.6676268758       -1.5007121451
 C          1.6899959204       -4.0534491751       -1.0331619392
 H          1.8139667947       -4.8740850821       -1.7232323568
 H          1.9183476728       -4.2984846342       -0.0077243967
 H          2.3412860227       -2.5221456247       -2.5169532093
 H          2.4530593426       -1.9772462767       -0.7988786488
 H         -0.0066270934       -3.2273247752       -2.1829740552
