  62
        -98.93859162
 C          1.7020214880        1.0822988911       -0.0147645135
 C          2.9075287953        1.1413517941        0.7318397241
 C          4.1010765469        0.5224625260        0.1318014913
 C          3.9960034212       -0.0470799509       -1.0808796984
 C          5.0635388052       -0.7710759231       -1.8535312627
 C          5.0068095356       -2.2827346537       -1.5750775092
 C          5.8082686063       -2.7444117788       -0.3585591176
 H          5.5792569373       -3.8009103073       -0.2005189544
 H          6.8745455128       -2.6707370177       -0.5825521256
 C          5.5271452478       -1.9814270502        0.9386457799
 H          4.4521932641       -1.8256064795        1.0487129328
 H          5.8480747985       -2.6093459187        1.7721235825
 C          6.2623108552       -0.6351142112        1.0188197805
 H          7.0126636519       -0.5911912080        0.2296381008
 H          6.8047663623       -0.5756704873        1.9646802105
 C          5.3627121052        0.6071393158        0.9466559304
 H          5.0244702009        0.8701441525        1.9538396373
 H          5.9544851361        1.4552379350        0.5859628910
 H          3.9571770277       -2.5622616109       -1.4516868465
 H          5.3850344127       -2.8148829610       -2.4503519608
 H          4.8486565527       -0.6044676131       -2.9112167896
 H          6.0455211116       -0.3661533612       -1.6278747137
 O          2.8238096794       -0.0793045163       -1.7684104480
 C          1.6550428565        0.4673024250       -1.2653940114
 O          0.6779069616        0.3268983527       -2.0293451679
 H         -0.6902544657       -0.4253004533       -0.5114615420
 C         -0.9702289176       -0.3120351091        0.5253763935
 C         -0.4414767501        0.7376204517        1.2628794406
 C         -0.8223316198        0.8692248889        2.5929725913
 C         -1.7111838977       -0.0243787088        3.1662509830
 C         -2.2351418843       -1.0701520004        2.4270171473
 C         -1.8515181651       -1.2144285491        1.1008364745
 N         -2.3939551375       -2.2700240332        0.3286879460
 S         -4.0202021283       -2.0731343070       -0.0346809678
 O         -4.7860889949       -2.2276967748        1.1757210304
 O         -4.3075034151       -3.0087374095       -1.0979668263
 C         -4.1341202558       -0.3950449047       -0.6258295033
 C         -4.4053804509        0.6202679386        0.2689694304
 C         -4.3988203786        1.9291431179       -0.1845753264
 C         -4.1178813388        2.1976282692       -1.5152877004
 C         -3.8436251196        1.1667658067       -2.4005539644
 C         -3.8453552548       -0.1437159412       -1.9519677714
 H         -3.6373440178       -0.9733878093       -2.6089831168
 H         -3.6198138784        1.3789837846       -3.4338313682
 H         -4.1134245294        3.2170447114       -1.8686893692
 H         -4.6064934602        2.7337061391        0.5022081473
 H         -4.6194313643        0.3683859185        1.2946077838
 H         -1.8885433571       -2.4045858692       -0.5369889075
 H         -2.9409530710       -1.7671908278        2.8488686942
 H         -1.9985481348        0.0935018740        4.1998691757
 H         -0.4105434303        1.6753457184        3.1820268783
 C          0.4845220758        1.7379665724        0.6142778316
 H          0.8886236244        2.3828484140        1.4059034999
 C         -0.3011072479        2.6025870839       -0.3543055689
 C         -1.0934163627        3.7558445298        0.1799806317
 C          0.1522980098        4.0062326406       -0.6146563696
 H          0.0604451837        4.3983355645       -1.6161960091
 H          1.0326099343        4.3510851252       -0.0916321541
 H         -1.0585500600        3.9369953340        1.2433025466
 H         -2.0455007491        3.9776871972       -0.2747009008
 H         -0.7136498970        2.0481723635       -1.1874345702
 O          2.9826050503        1.6947967129        1.8617419945
