  62
        -98.94478517
 C          1.9373610112        0.5330768858       -0.6068216683
 C          3.0041194060        1.3116846954       -0.0966495448
 C          4.3456058466        0.7284638492       -0.2256952976
 C          4.4851969505       -0.4740499950       -0.8133061040
 C          5.7847519427       -1.2106572165       -0.9580322623
 C          6.0330196955       -2.1379778586        0.2400066882
 C          5.8442850023       -1.4584294377        1.5962920574
 H          4.7924096711       -1.1887028949        1.7154643486
 H          6.0748572784       -2.1986138243        2.3655595838
 C          6.7148941861       -0.2119406967        1.8081504033
 H          7.1548937994       -0.2576659876        2.8065870480
 H          7.5372865054       -0.2086754063        1.0919120827
 C          5.9573500403        1.1138455806        1.7154295621
 H          6.6108182892        1.9057286407        2.0909986650
 H          5.0787673058        1.0795900270        2.3644543362
 C          5.5022663759        1.5252511451        0.3094947359
 H          5.1531346740        2.5605379401        0.3632827951
 H          6.3493012715        1.4839930499       -0.3781727466
 H          7.0480067523       -2.5327460253        0.1664305099
 H          5.3362492212       -2.9771807145        0.1776695750
 H          6.5964555129       -0.4915175020       -1.0491406757
 H          5.7395667643       -1.8115193726       -1.8678892909
 O          3.4387976328       -1.1861902628       -1.3038171745
 C          2.1385733330       -0.7101791261       -1.2061961167
 O          1.2780134235       -1.4723530103       -1.6853195057
 O          2.8406159315        2.4385051799        0.4436343619
 C          0.5221293163        1.0743343047       -0.4948934235
 C         -0.3113078419        0.1248615128        0.3285038164
 C          0.0839723278       -0.1344095503        1.6396192483
 C         -0.6166793434       -1.0260543036        2.4266237125
 C         -1.7348786938       -1.6716171744        1.9268003999
 C         -2.1406162561       -1.4184625930        0.6227448935
 C         -1.4336906361       -0.5187992781       -0.1659974703
 H         -1.7607060017       -0.3589434709       -1.1789719987
 N         -3.2593033791       -2.0770031966        0.0877870978
 S         -4.4103562976       -1.2404255775       -0.7869031986
 O         -5.5374197544       -2.1439627885       -0.8569373409
 O         -3.8695423219       -0.7961061348       -2.0451701227
 C         -4.8155296050        0.1541196741        0.2479387981
 C         -4.1714779189        1.3591553451        0.0546935335
 C         -4.4456696981        2.4089577142        0.9174125285
 C         -5.3518601608        2.2365092473        1.9521075709
 C         -5.9932765644        1.0199582554        2.1306519186
 C         -5.7207142998       -0.0342840904        1.2745636547
 H         -6.2042250718       -0.9929199752        1.3714143807
 H         -6.7008045482        0.8903182348        2.9336683837
 H         -5.5607523485        3.0562945198        2.6211785506
 H         -3.9490780848        3.3560557017        0.7784709232
 H         -3.4759125693        1.4569758880       -0.7621334743
 H         -3.6986765666       -2.7302710294        0.7196641701
 H         -2.2802141562       -2.3760258842        2.5363992384
 H         -0.2937523010       -1.2207906519        3.4381802463
 H          0.9596211776        0.3685462011        2.0269416821
 H          0.6180452401        2.0192792411        0.0597549091
 C         -0.0475599087        1.3720152989       -1.8646269912
 C         -1.1025806287        2.4239823370       -2.0248572314
 C          0.2882817302        2.6749842417       -2.5236039029
 H          0.4638871754        2.6830446714       -3.5888837243
 H          0.9125707402        3.3632088253       -1.9726322221
 H         -1.8877955452        2.2593306823       -2.7481705218
 H         -1.4170806665        2.9516739939       -1.1368973405
 H         -0.1000818627        0.4955352198       -2.5010071221
