  62
        -98.94633567
 C         -1.7896266417       -0.7416582477        0.2319627894
 C         -3.0868579929       -0.9928140528        0.7391641459
 C         -4.0093720305        0.1502181170        0.7357115736
 C         -3.5769563897        1.3428467248        0.2864990993
 C         -4.4261669977        2.5751808818        0.1757729473
 C         -5.0871751135        2.6706240802       -1.2064482979
 C         -5.7881212797        1.3850634201       -1.6458469196
 H         -5.0396414920        0.6030666753       -1.7937862550
 H         -6.2447302581        1.5796133055       -2.6187770238
 C         -6.8602731415        0.8811276097       -0.6696003755
 H         -7.7458419437        0.5933618339       -1.2401461296
 H         -7.1567462417        1.6864114302        0.0034641920
 C         -6.4448061039       -0.3398253454        0.1532390260
 H         -6.0590881294       -1.1160172442       -0.5126732942
 H         -7.3374321761       -0.7413216667        0.6403700551
 C         -5.4025274887       -0.0829118457        1.2489523004
 H         -5.3461400749       -0.9816110496        1.8702786671
 H         -5.7270120570        0.7489663400        1.8773581482
 H         -4.3166737140        2.9088156828       -1.9433931039
 H         -5.8064307700        3.4914540484       -1.1893661118
 H         -3.7879121059        3.4477052063        0.3241430894
 H         -5.1873191329        2.5571509874        0.9532729050
 O         -2.3147329260        1.5519615160       -0.1671049183
 C         -1.3933605264        0.5164123165       -0.2193679865
 O         -0.2803784843        0.8422973399       -0.6721510756
 O         -3.4526451867       -2.1165143053        1.1776703762
 C         -0.7912827346       -1.8831773153        0.1697411071
 C          0.4562724780       -1.5301959123        0.9397343350
 C          0.3314329493       -1.1223685914        2.2664286725
 C          1.4443105517       -0.7895371959        3.0128255114
 C          2.7079915110       -0.8479697342        2.4498074516
 C          2.8448293876       -1.2591415727        1.1306384298
 C          1.7244076877       -1.6081613292        0.3869320790
 H          1.8651336298       -1.9184143955       -0.6343803319
 N          4.1176115709       -1.3546397977        0.5351430375
 S          4.4420795687       -0.4904445993       -0.8625167244
 O          3.5475539183       -0.8997438785       -1.9127385815
 O          5.8527689393       -0.7045182886       -1.1038673650
 C          4.1729289793        1.2140567726       -0.4100001444
 C          2.8856903803        1.7083274279       -0.3467201403
 C          2.6980916791        3.0173056496        0.0717214413
 C          3.7864965214        3.8024438059        0.4176693724
 C          5.0730052650        3.2884447903        0.3489048905
 C          5.2694203460        1.9811076257       -0.0636309084
 H          6.2507138278        1.5405196658       -0.1369042232
 H          5.9192365269        3.9005370052        0.6165713393
 H          3.6302678727        4.8196490143        0.7411277945
 H          1.6926816596        3.4046342796        0.1221646208
 H          2.0443436821        1.0906250781       -0.6191513691
 H          4.8790085492       -1.2229954225        1.1868639198
 H          3.5798553587       -0.5823244303        3.0283650532
 H          1.3292252630       -0.4756549946        4.0392748145
 H         -0.6568216282       -1.0696432187        2.7030469652
 H         -1.2807506443       -2.7273761942        0.6782777844
 C         -0.5294601081       -2.2724180051       -1.2699588065
 C         -0.1312104438       -3.6762761214       -1.6100725262
 C         -1.4993470054       -3.1783379021       -1.9649345998
 H         -1.7285583340       -2.9902199592       -3.0032545111
 H         -2.3402346716       -3.5381475878       -1.3898178121
 H          0.5842917702       -3.8284381115       -2.4043189820
 H         -0.0436239822       -4.3814722979       -0.7973568710
 H         -0.0958411873       -1.4665112239       -1.8528632731
