  62
        -98.93393437
 C          1.8790948946        1.1037077475        0.2558741013
 C          2.3389001149        0.1242757391        1.1699358560
 C          2.6431321702       -1.2022450383        0.6154782184
 C          2.4167557413       -1.4299313003       -0.6907616466
 C          2.7331962613       -2.7040204862       -1.4219093283
 C          4.2470206409       -2.7915098249       -1.7033815762
 C          4.9595771142       -3.9301487164       -0.9731809056
 H          6.0336569925       -3.7610455304       -1.0736462292
 H          4.7251569562       -4.8726162121       -1.4721801152
 C          4.6166275145       -4.0886469266        0.5111349352
 H          5.3750051736       -4.7438010296        0.9447976659
 H          3.6616455208       -4.6060129177        0.6144369215
 C          4.5609129581       -2.7918358788        1.3288679708
 H          5.1670152673       -2.0153879066        0.8616592300
 H          4.9973692688       -2.9893865623        2.3099589580
 C          3.1404513244       -2.2488182693        1.5743344890
 H          3.1151788255       -1.7623852282        2.5542619030
 H          2.4289103097       -3.0793434059        1.6052000738
 H          4.7010913084       -1.8380368380       -1.4255928832
 H          4.4102219688       -2.9166994356       -2.7747656470
 H          2.1698812374       -2.6877458601       -2.3552474782
 H          2.4009546882       -3.5552437475       -0.8314639320
 O          1.9348112731       -0.4793179292       -1.5306231796
 C          1.6327757159        0.7993718699       -1.0841127581
 O          1.1773011745        1.5463181412       -1.9702176166
 O          2.4854036432        0.3508285739        2.4028191428
 C          1.5076055205        2.4682972749        0.8107627753
 C          0.1234620669        2.8334627327        0.3355409621
 C         -0.1928052530        4.0181702248       -0.3144967648
 C         -1.4841825584        4.2462007375       -0.7587755882
 C         -2.4750702834        3.2998189376       -0.5797610704
 C         -2.1701518206        2.1146712830        0.0819357550
 C         -0.8867905770        1.9038820337        0.5529642588
 H         -0.6575324575        0.9774398156        1.0616208364
 N         -3.1566010191        1.1348173002        0.2991358145
 S         -2.6855514113       -0.4864077117        0.3016776218
 O         -2.1624148532       -0.8129353952        1.6061305526
 O         -1.8271965006       -0.7751462203       -0.8254361905
 C         -4.2742375155       -1.2691117609        0.0879995835
 C         -4.6612842111       -1.6880562412       -1.1707530444
 C         -5.9114437818       -2.2653935591       -1.3304384402
 C         -6.7500707549       -2.4091870545       -0.2353761778
 C         -6.3476925966       -1.9837716555        1.0220996106
 C         -5.0986124735       -1.4072013733        1.1888882484
 H         -4.7375148224       -1.0697207826        2.1462984178
 H         -7.0011760568       -2.0994109940        1.8716059777
 H         -7.7223182990       -2.8582794459       -0.3625315830
 H         -6.2249693982       -2.5996814297       -2.3062559467
 H         -3.9713673601       -1.5617361164       -1.9899994888
 H         -3.9764061897        1.2761358463       -0.2759019677
 H         -3.4739854322        3.4692789900       -0.9519879800
 H         -1.7162884429        5.1672478530       -1.2718214755
 H          0.5754479575        4.7502596784       -0.5012010848
 H          1.4574323621        2.3103607044        1.9021286814
 C          2.5446391756        3.5561942510        0.5783748211
 C          3.9857658022        3.2127122680        0.3513068764
 C          3.1702179805        3.7943565024       -0.7621552092
 H          3.3676959593        4.8137004974       -1.0602998763
 H          2.8679099493        3.1505203204       -1.5727444876
 H          4.7397667572        3.8291538667        0.8173653079
 H          4.2463965256        2.1652855061        0.3003934118
 H          2.3538355387        4.4335607255        1.1888449452
