  62
        -98.93507918
 C         -1.8457036492       -1.3386919205        0.4402592294
 C         -1.9469894388       -0.0187284906        0.9492693998
 C         -3.1399228786        0.7610332698        0.5762176601
 C         -4.0721529988        0.1948251103       -0.2123437001
 C         -5.4139113487        0.7013561908       -0.6991657799
 C         -5.7868524683        2.1751850809       -0.5661792594
 C         -4.9788084581        3.1169163909       -1.4581374792
 H         -5.2654526082        2.9412688213       -2.4981487193
 H         -5.2505669878        4.1447411409       -1.2080190989
 C         -3.4627095081        2.9661612905       -1.3663809393
 H         -3.0127171579        3.6810756805       -2.0608133191
 H         -3.1718626884        1.9682408005       -1.7015445796
 C         -2.8642921980        3.2214347499        0.0152472207
 H         -3.1816256677        4.2014429799        0.3767310910
 H         -1.7777217580        3.2473569797       -0.1035083793
 C         -3.1965784782        2.1715001297        1.0899252805
 H         -2.4400862282        2.2392422993        1.8773651804
 H         -4.1616923981        2.3727260099        1.5491837405
 H         -6.8361063383        2.2595840712       -0.8618494694
 H         -5.7271294682        2.4865455506        0.4725391106
 H         -5.4809089088        0.4081615111       -1.7517992399
 H         -6.1632862588        0.1049599309       -0.1668043200
 O         -3.9272449792       -1.0743526796       -0.6885045604
 C         -2.8206291594       -1.8615029000       -0.4073681807
 O         -2.8507051897       -2.9711691398       -0.9747149710
 O         -1.0754717286        0.4866159790        1.7049147399
 C         -0.6142315994       -2.1265464609        0.8515380892
 C          0.4965142406       -1.9812680809       -0.1618898008
 C          0.2852022405       -2.2626206905       -1.5073383409
 C          1.3057516405       -2.1049339005       -2.4277807609
 C          2.5585171406       -1.6750790410       -2.0258142608
 C          2.7826267707       -1.4011458814       -0.6839215508
 C          1.7546088507       -1.5539463914        0.2387098392
 H          1.9316338909       -1.3204991617        1.2799695193
 N          4.0653110309       -0.9662806119       -0.2827915007
 S          4.5167021013        0.5854171581       -0.7279897703
 O          4.2168920513        0.7714623986       -2.1236203102
 O          5.9004790213        0.7249442377       -0.3380525103
 C          3.5025167716        1.6485712781        0.2832183200
 C          4.0641112418        2.2668703177        1.3830126402
 C          3.2533616921        3.0259552177        2.2112806104
 C          1.8984654821        3.1355031081        1.9374976205
 C          1.3491749819        2.5038365986        0.8324841104
 C          2.1567051116        1.7552696186       -0.0083604699
 H          1.7588430615        1.2540001389       -0.8767747300
 H          0.2902930919        2.5634233189        0.6401995804
 H          1.2610267723        3.7112078481        2.5897656107
 H          3.6764424822        3.5207652873        3.0708062205
 H          5.1202737618        2.1443218873        1.5617280101
 H          4.2376892009       -1.0851678322        0.7061971793
 H          3.3589112906       -1.5322275410       -2.7329976608
 H          1.1245434804       -2.3218009502       -3.4698389210
 H         -0.6888153896       -2.6024227902       -1.8254359910
 H         -0.2730355492       -1.6593868313        1.7855380093
 C         -0.8842465898       -3.5938517109        1.1216583588
 C          0.0404707501       -4.3498454014        2.0259421785
 C         -1.3485482298       -4.0181366512        2.4810360987
 H         -2.0761802800       -4.8125565710        2.5503632185
 H         -1.4697902096       -3.2497756113        3.2307698389
 H          0.2717166098       -5.3754317714        1.7829530682
 H          0.8613412102       -3.8088723418        2.4717762386
 H         -1.2962168699       -4.1183977706        0.2697648687
