  62
        -98.94509544
 C         -2.5568809646       -0.0560913263        0.3859571317
 C         -2.2679657009        0.5766533593       -0.8470786953
 C         -2.0039592476        2.0205358236       -0.7796985488
 C         -2.0598038960        2.6470647923        0.4092194486
 C         -1.8346469915        4.1167153769        0.6185373977
 C         -0.3746439500        4.4369066913        0.9618601780
 C          0.6444871727        3.8088099102        0.0111981270
 H          1.6305916389        4.1698674126        0.3136088367
 H          0.6515185809        2.7251028785        0.1483662332
 C          0.4198777503        4.1271216304       -1.4733581270
 H         -0.2082637980        5.0134190500       -1.5748900572
 H          1.3860749223        4.3591160638       -1.9261093346
 C         -0.1839959609        2.9754496376       -2.2802293507
 H          0.3533201902        2.0523272284       -2.0464120232
 H         -0.0365535106        3.1876560237       -3.3427719974
 C         -1.6826025584        2.7246655404       -2.0671746869
 H         -2.2305927105        3.6666152994       -2.1431311441
 H         -2.0284817806        2.0592859187       -2.8637349694
 H         -0.2551280378        5.5226011844        0.9607595139
 H         -0.1670023323        4.0725836923        1.9709548028
 H         -2.1300821408        4.6500822616       -0.2832201653
 H         -2.4696725200        4.4412794410        1.4453559909
 O         -2.3303010836        2.0028503560        1.5751258240
 C         -2.5584864787        0.6367388374        1.5943537342
 O         -2.7619209957        0.1643963920        2.7339307310
 H         -0.2351331293       -0.9395639898        0.5903878680
 C         -0.3853903343       -1.8412475149        0.0144118025
 C         -1.6757111236       -2.3148222564       -0.1835118656
 C         -1.8460767398       -3.4909539800       -0.9026998200
 C         -0.7487993398       -4.1598771443       -1.4182310483
 C          0.5309146919       -3.6686886250       -1.2426785981
 C          0.7114064658       -2.4872609490       -0.5292208254
 N          1.9934951604       -1.9302848635       -0.3946084427
 S          2.2825218282       -0.6136062743        0.6037357486
 O          2.0271977426       -0.9526452818        1.9888183528
 O          1.5838630210        0.5315836391        0.0807862115
 C          4.0354146068       -0.4246063710        0.3422464203
 C          4.9213949534       -1.0399049360        1.2062717772
 C          6.2820776246       -0.9132791821        0.9744509360
 C          6.7312885814       -0.1789252591       -0.1128089049
 C          5.8302503397        0.4354242782       -0.9698412484
 C          4.4685950859        0.3127166929       -0.7431631040
 H          3.7302776689        0.7781202397       -1.3754961314
 H          6.1825306656        1.0088903072       -1.8119746047
 H          7.7904532761       -0.0817984652       -0.2915126810
 H          6.9848404612       -1.3862386753        1.6412944380
 H          4.5262564147       -1.5904128742        2.0449551836
 H          2.7451998565       -2.6037307058       -0.3979583827
 H          1.3831262437       -4.1824015201       -1.6595392626
 H         -0.8945166741       -5.0751604320       -1.9716843825
 H         -2.8377082202       -3.8828150713       -1.0605181300
 C         -2.8274213139       -1.5483327285        0.4227239396
 H         -2.8941226590       -1.8198492583        1.4878210033
 C         -4.1555424601       -1.8520264463       -0.2430779363
 C         -5.0226817633       -2.9669021023        0.2573929318
 C         -5.4204571307       -1.5425825573        0.4979101582
 H         -6.2553823624       -1.1363965371       -0.0528603371
 H         -5.3200216209       -1.1426577839        1.4968550083
 H         -4.6659026899       -3.5391277818        1.1005902096
 H         -5.5905780388       -3.5401096158       -0.4599172735
 H         -4.1371216187       -1.6524272933       -1.3084065416
 O         -2.2491535737       -0.0303682680       -1.9502248752
