  62
        -98.94620355
 C          1.2101917915        1.4864723266        0.6307079496
 C          2.2280792606        1.3670309094       -0.3479079831
 C          3.2362084336        0.3275890399       -0.0970622418
 C          3.1667373620       -0.4265569013        1.0137059088
 C          4.1483088601       -1.4908789351        1.4262107803
 C          3.9159676573       -2.8646926666        0.7820933948
 C          4.2433597911       -2.9534571788       -0.7087346715
 H          5.2573864007       -2.5901893115       -0.8783482422
 H          4.2299348547       -4.0118322604       -0.9766748631
 C          3.2644444858       -2.1979630138       -1.6187513783
 H          2.9827018761       -2.8341299782       -2.4604496738
 H          2.3495337260       -1.9708268843       -1.0671136313
 C          3.8218006668       -0.8987168630       -2.1995593568
 H          4.6616696331       -1.1211932221       -2.8615654360
 H          3.0379736474       -0.4247593555       -2.7956716221
 C          4.2881837356        0.1103750100       -1.1424229694
 H          4.4678132709        1.0681261821       -1.6367102630
 H          5.2178466942       -0.2260036097       -0.6838374567
 H          4.5474953210       -3.5804701608        1.3137354454
 H          2.8768594928       -3.1571016324        0.9432451720
 H          5.1611596698       -1.1530326798        1.2034983156
 H          4.0511610045       -1.5987248344        2.5089984196
 O          2.1791784259       -0.2727195165        1.9370581764
 C          1.1780535990        0.6685336783        1.7625452018
 O          0.3316439710        0.6847741175        2.6801674244
 O          2.3175890726        2.0880039892       -1.3742344478
 C          0.0834869699        2.5009413203        0.5023179376
 C         -0.8819106053        2.0428676878       -0.5651121220
 C         -0.7017983611        2.3369534858       -1.9120797419
 C         -1.5983132948        1.8665455561       -2.8545532447
 C         -2.6835662393        1.0958752978       -2.4782695671
 C         -2.8745358659        0.7976527465       -1.1336121227
 C         -1.9765434928        1.2742789063       -0.1893383138
 H         -2.1386300630        1.0475792917        0.8538297838
 N         -3.9826194329        0.0404352916       -0.7263497016
 S         -3.8851586585       -1.0324743231        0.5482711925
 O         -5.0386145612       -1.8887340907        0.3714598780
 O         -3.8155586771       -0.3187637852        1.7972229220
 C         -2.3995963093       -1.9768928305        0.2665518909
 C         -1.2949422111       -1.7998337199        1.0722034775
 C         -0.1564608274       -2.5489035324        0.8184871722
 C         -0.1377883719       -3.4515394470       -0.2323684718
 C         -1.2575560570       -3.6172352773       -1.0341202166
 C         -2.3994195008       -2.8754790404       -0.7836278917
 H         -3.2954276468       -2.9921249285       -1.3713520710
 H         -1.2412474713       -4.3227266151       -1.8490241681
 H          0.7514702296       -4.0313068214       -0.4259240134
 H          0.7068127927       -2.4087709689        1.4508055727
 H         -1.3243838944       -1.0861104569        1.8810351072
 H         -4.5470049780       -0.3240558404       -1.4795146935
 H         -3.3827426302        0.7318245303       -3.2154118765
 H         -1.4474286270        2.1001200933       -3.8975518981
 H          0.1556712529        2.9122923626       -2.2193089608
 H         -0.4494817904        2.4766105297        1.4627829771
 C          0.5950269228        3.9089921450        0.2735138456
 C         -0.3336499441        5.0628854410        0.4971709739
 C          0.7956789570        4.8133303101        1.4502812168
 H          1.6373556357        5.4896781976        1.4428813982
 H          0.5607326565        4.4211752602        2.4295689465
 H         -0.2701402665        5.9131284994       -0.1643307126
 H         -1.3360925454        4.8379783130        0.8301398788
 H          1.3118643187        3.9850918885       -0.5331503829
