  62
        -98.94824009
 C         -1.3181906411       -1.5619014897        0.2313109902
 C         -1.6323671106       -0.5838617798        1.2060736004
 C         -2.9089895503        0.1141489908        1.0277331706
 C         -3.7091871205       -0.2131384986       -0.0035187594
 C         -5.0707174002        0.3625311321       -0.2857173793
 C         -5.0472244297        1.6728845723       -1.0834367289
 C         -4.5554577691        2.8937822119       -0.3055170886
 H         -4.7867599687        3.7747168121       -0.9075710784
 H         -5.1143360891        2.9801200319        0.6269499414
 C         -3.0502142091        2.8832300311       -0.0061820386
 H         -2.6177862487        3.8592945310       -0.2384025384
 H         -2.5468017394        2.1632090311       -0.6561537788
 C         -2.6843733292        2.5691130106        1.4443400113
 H         -1.5927184892        2.5430400801        1.5048937013
 H         -3.0402028489        3.3717432506        2.0948945115
 C         -3.2357984798        1.2351503807        1.9665956409
 H         -2.7596957299        1.0189776202        2.9262618109
 H         -4.3128589198        1.3084647411        2.1181666210
 H         -4.4234614997        1.5322527423       -1.9693470790
 H         -6.0675843196        1.8685205028       -1.4213234489
 H         -5.6028196902        0.5172890521        0.6533477708
 H         -5.6077278206       -0.3864791875       -0.8718584895
 O         -3.3704856909       -1.1565630085       -0.9215877897
 C         -2.1483191512       -1.8130919591       -0.8603615899
 O         -1.9371499916       -2.5869960289       -1.8135386301
 O         -0.8815892705       -0.3131826204        2.1823833905
 C          0.0139757686       -2.2825374903        0.3278823300
 C          0.9375079388       -1.8000541504       -0.7646062799
 C          1.7085762684       -2.6385903006       -1.5588331701
 C          2.5560537686       -2.1070810907       -2.5164448100
 C          2.6827296392       -0.7391853207       -2.6775084897
 C          1.9197917596        0.1082625794       -1.8819374994
 C          1.0454961494       -0.4284418904       -0.9519313796
 H          0.4341716597        0.2399660897       -0.3657985294
 N          2.0254739802        1.5041038394       -1.9807067891
 S          1.9509552907        2.4059842191       -0.5690817588
 O          0.5847798507        2.5574105995       -0.1408486688
 O          2.6449037612        3.6345356188       -0.8972543685
 C          2.9068776503        1.4741310183        0.6154785109
 C          4.2689412802        1.3950206978        0.3944562309
 C          5.0494421899        0.6438310472        1.2565363807
 C          4.4562983696       -0.0177621828        2.3214530105
 C          3.0904717597        0.0775380277        2.5335969605
 C          2.3025659600        0.8294832183        1.6749106908
 H          1.2354319800        0.9033269787        1.8193934108
 H          2.6219596195       -0.4335226223        3.3598187604
 H          5.0609109294       -0.6090569733        2.9909815903
 H          6.1129980999        0.5730590568        1.0953834306
 H          4.6935863205        1.9330356478       -0.4375433190
 H          2.7522775804        1.8336433792       -2.5987297790
 H          3.3568075994       -0.3287569708       -3.4135153196
 H          3.1394432183       -2.7695464908       -3.1375248902
 H          1.6406247079       -3.7066658906       -1.4348075604
 H          0.4476578888       -1.9547877808        1.2855042400
 C         -0.1630103221       -3.7844202103        0.3662250896
 C          0.8530044276       -4.6394001409        1.0615782993
 C         -0.5006339423       -4.4387899305        1.6714466094
 H         -1.1979808827       -5.2629759401        1.6690999492
 H         -0.5832125921       -3.8015630106        2.5399019696
 H          1.0857666671       -5.6067541609        0.6428232591
 H          1.6939421978       -4.1421428714        1.5206282895
 H         -0.6397293823       -4.1735443798       -0.5257423905
