  62
        -98.93912937
 C          2.5456210525        0.9026215034        0.2332563161
 C          3.1987585088       -0.0828428497        1.0159290636
 C          3.5490120490       -1.3337786429        0.3311456143
 C          3.2060595233       -1.4921010783       -0.9600449632
 C          3.4432470344       -2.7364875547       -1.7646418696
 C          2.2437954434       -3.6904701485       -1.6768121839
 C          1.7672638672       -3.9558820613       -0.2487012669
 H          1.3548057887       -3.0317349447        0.1641277431
 H          0.9422506746       -4.6690037738       -0.3103236211
 C          2.8499798649       -4.5002696278        0.6938741049
 H          2.4281732785       -5.3268277515        1.2693381866
 H          3.6797322488       -4.9010517959        0.1107688889
 C          3.3841383271       -3.4815240322        1.7023651568
 H          3.9708153539       -4.0198485360        2.4513231049
 H          2.5470909615       -3.0073387225        2.2212584808
 C          4.2809222609       -2.3785202184        1.1263090206
 H          4.7370094179       -1.8491879651        1.9680231590
 H          5.0772599946       -2.8267689877        0.5288862911
 H          2.5175275645       -4.6339167473       -2.1528699926
 H          1.4113914749       -3.2551543010       -2.2356069277
 H          4.3423704339       -3.2315812309       -1.4025751297
 H          3.5905521277       -2.4487966426       -2.8069929951
 O          2.5518491320       -0.5400126835       -1.6716010463
 C          2.1888811608        0.6720802799       -1.0970018797
 O          1.5722040778        1.4288968655       -1.8696643785
 O          3.4688780772        0.0746782145        2.2370198564
 C          2.1421664271        2.1952649968        0.9224546869
 C          0.6980835354        2.4996281633        0.6112439771
 C          0.2553744950        3.6820006808        0.0349574579
 C         -1.0852578725        3.8581395999       -0.2638445129
 C         -2.0099243101        2.8652801514        0.0012104212
 C         -1.5772291116        1.6808123440        0.5806515345
 C         -0.2393583806        1.5130955214        0.8931967540
 H          0.0943526616        0.5806306344        1.3354275078
 N         -2.5153395965        0.6491474014        0.8343452735
 S         -3.0430877176       -0.2007533669       -0.5325176955
 O         -2.2451902689       -1.4020570163       -0.6791556525
 O         -3.0962859980        0.6904089937       -1.6613609005
 C         -4.6955777783       -0.6402902629       -0.0293141508
 C         -4.9342685807       -1.8780458546        0.5345218637
 C         -6.2171774654       -2.1844599229        0.9609838805
 C         -7.2326345028       -1.2509815093        0.8208837276
 C         -6.9772847924       -0.0118943114        0.2523199618
 C         -5.6970143373        0.2995452208       -0.1758814246
 H         -5.4529025413        1.2452698764       -0.6307481192
 H         -7.7696351069        0.7108644955        0.1426766520
 H         -8.2295881254       -1.4913083342        1.1549530767
 H         -6.4186389655       -3.1480236895        1.4007592445
 H         -4.1168069417       -2.5762304196        0.6156837158
 H         -2.1405773234       -0.0365634094        1.4778647358
 H         -3.0498530823        2.9825901209       -0.2544851497
 H         -1.4112624064        4.7796457965       -0.7219440613
 H          0.9639386894        4.4558549451       -0.2108125551
 H          2.2152225641        1.9622891353        1.9986424373
 C          3.0805317886        3.3655577725        0.6727905185
 C          4.5209842082        3.1393071818        0.3262018629
 C          3.5861415985        3.7123780964       -0.6942307747
 H          3.6888813381        4.7564021093       -0.9519959741
 H          3.2708284792        3.0890143713       -1.5160322384
 H          5.2626024460        3.7872017251        0.7687151487
 H          4.8513615952        2.1183341156        0.2001864291
 H          2.8746026780        4.1968186111        1.3400962886
