  62
        -98.94848252
 C         -2.3617541674       -0.6025994081        0.1713118775
 C         -1.5450473535       -0.0013724629       -0.8159257094
 C         -1.6725136606        1.4559257992       -0.9612673179
 C         -2.5129992696        2.1294598161       -0.1567091317
 C         -2.7405942954        3.6126115085       -0.1948034298
 C         -1.8110981264        4.3581367961        0.7713313578
 C         -0.3377383581        3.9708476712        0.6416784946
 H          0.2257784010        4.6052055292        1.3304048522
 H         -0.1984205845        2.9409272534        0.9799300979
 C          0.2378155946        4.1169263223       -0.7738611935
 H         -0.3954135187        4.7770257915       -1.3686943164
 H          1.2211660383        4.5864509362       -0.7008602091
 C          0.4328952599        2.7887378113       -1.5074101457
 H          1.0849521638        2.9636361482       -2.3676779211
 H          0.9440211800        2.0896646315       -0.8408300833
 C         -0.8456268313        2.1183477862       -2.0272632579
 H         -1.4432162767        2.8450862080       -2.5823527094
 H         -0.5478023117        1.3210147781       -2.7144319916
 H         -2.1302686723        4.1462103564        1.7945871975
 H         -1.9231806093        5.4302179015        0.5958143702
 H         -2.5849845288        3.9697584127       -1.2112115620
 H         -3.7758337258        3.8053750110        0.0935818478
 O         -3.2496784616        1.5260432825        0.8118664923
 C         -3.1713845268        0.1585163788        1.0166432403
 O         -3.8662357614       -0.2575130108        1.9667922019
 H         -0.3295927406       -1.0475589238        1.8341536643
 C          0.0183988250       -1.8768214286        1.2345536766
 C         -0.8797588808       -2.5661893880        0.4284869153
 C         -0.4069965429       -3.6293376725       -0.3296967621
 C          0.9334948290       -3.9744911179       -0.2937801042
 C          1.8319098947       -3.2530052472        0.4703363080
 C          1.3673995704       -2.1864339089        1.2316757861
 N          2.2423832030       -1.3890027634        2.0003688371
 S          2.3940190823        0.2182393220        1.5449607625
 O          3.3210003599        0.7937034899        2.4965480003
 O          1.0940910006        0.8319256742        1.4714984150
 C          3.1718960134        0.1599037487       -0.0605563227
 C          2.4369608077       -0.2351289053       -1.1608111608
 C          3.0769288522       -0.3234135574       -2.3883987140
 C          4.4254968151       -0.0222645126       -2.4953559835
 C          5.1486229066        0.3697913969       -1.3786626368
 C          4.5186358325        0.4577388817       -0.1483076272
 H          5.0370015284        0.7599515588        0.7474257933
 H          6.1974199007        0.6051929009       -1.4622184707
 H          4.9145075199       -0.0925985170       -3.4542397385
 H          2.5074402353       -0.6289333507       -3.2514300159
 H          1.3851819744       -0.4591141721       -1.0653739404
 H          3.1662285017       -1.7863454789        2.1061827368
 H          2.8824214047       -3.5026740840        0.4739194468
 H          1.2866042131       -4.8030868319       -0.8884995551
 H         -1.0816807882       -4.1751477815       -0.9683683901
 C         -2.3149251369       -2.0987552409        0.4369253558
 H         -2.6994996635       -2.2166246331        1.4642418366
 C         -3.2247732300       -2.9191460207       -0.4661427785
 C         -4.4380500915       -2.3102390404       -1.1016621070
 C         -3.2696463932       -2.7101906410       -1.9489594162
 H         -3.3742259509       -3.5757944194       -2.5865332695
 H         -2.6427607717       -1.9350920409       -2.3598042067
 H         -5.3399112588       -2.9019649747       -1.1508291067
 H         -4.6167248401       -1.2576552553       -0.9348198892
 H         -3.3355073731       -3.9392575476       -0.1115679149
 O         -0.7566623764       -0.6429339597       -1.5586435789
