  62
        -98.93761222
 C         -1.8536570360       -0.1742596356       -0.0812313971
 C         -2.8715287635       -1.0808526983        0.2986719087
 C         -4.1993462795       -0.4992809729        0.5434121965
 C         -4.3646577540        0.8299420030        0.4151770646
 C         -5.6706333156        1.5607719057        0.5476001664
 C         -6.5106699682        1.3700290451       -0.7316097206
 C         -7.8051176650        0.5830845544       -0.5249803033
 H         -8.5391006982        1.2289615090       -0.0384761293
 H         -8.1941155387        0.3289678891       -1.5133328599
 C         -7.6832675288       -0.6970409323        0.3072653227
 H         -7.6590325625       -0.4440323183        1.3682446308
 H         -8.5990494712       -1.2694617743        0.1449436847
 C         -6.4795268599       -1.5931214636       -0.0114158357
 H         -6.8065231249       -2.6333734606        0.0454607624
 H         -6.1338352492       -1.4245408758       -1.0315463666
 C         -5.2937805554       -1.4428540774        0.9599773356
 H         -5.6654664898       -1.1582518822        1.9481839872
 H         -4.8009056190       -2.4142579812        1.0613673215
 H         -6.7664836529        2.3456978991       -1.1476509623
 H         -5.8909144668        0.8651196951       -1.4757149075
 H         -6.2107278872        1.1957890141        1.4183398216
 H         -5.4390220960        2.6155784373        0.6964440658
 O         -3.3567853013        1.6712909028        0.0656432720
 C         -2.0787476618        1.1971265821       -0.1943084477
 O         -1.2578459957        2.0798019654       -0.5068838822
 O         -2.6762836474       -2.3191977704        0.4312879060
 C         -0.4640732925       -0.7151110993       -0.3701882434
 C          0.5370283819       -0.0712937692        0.5556806346
 C          0.3277080143       -0.1694047997        1.9300198398
 C          1.1950731463        0.4281717528        2.8221389757
 C          2.2993129199        1.1266728058        2.3642510313
 C          2.5218750925        1.2256870533        0.9970404408
 C          1.6468923605        0.6222898702        0.1018220720
 H          1.8373067369        0.7326960463       -0.9519303310
 N          3.6261466795        1.9415864134        0.5065013431
 S          4.5819587252        1.2978138834       -0.7035995511
 O          5.7915146488        2.0900025671       -0.6691340854
 O          3.8694972420        1.2766796820       -1.9547407900
 C          4.9266325853       -0.3621960219       -0.1510097173
 C          5.9190423902       -0.5433829330        0.7929272788
 C          6.1519672440       -1.8168188282        1.2855123907
 C          5.3854609590       -2.8811479341        0.8349774382
 C          4.3936050772       -2.6824694135       -0.1127116476
 C          4.1584920873       -1.4112462476       -0.6129201410
 H          3.3994749449       -1.2188266383       -1.3527977587
 H          3.7997605638       -3.5114451506       -0.4635070883
 H          5.5630762833       -3.8720289667        1.2222212690
 H          6.9258575176       -1.9756747276        2.0190974461
 H          6.4983338550        0.3090555188        1.1088586315
 H          4.1968656618        2.3662850193        1.2228171904
 H          2.9746444966        1.6025645227        3.0589680338
 H          1.0140553653        0.3493775024        3.8834812439
 H         -0.5366654848       -0.7130110181        2.2863668877
 H         -0.5161375005       -1.7873210255       -0.1300961343
 C         -0.1330228529       -0.5620395881       -1.8390419111
 C          0.7961691968       -1.5298786700       -2.5061861151
 C         -0.6701982417       -1.5652962999       -2.8136976381
 H         -1.0066611949       -1.2168826059       -3.7786882190
 H         -1.2566212246       -2.3797773457       -2.4140302373
 H          1.4736275454       -1.1569345892       -3.2604267951
 H          1.1973908119       -2.3299730284       -1.9023386322
 H         -0.1081106108        0.4738667635       -2.1594946115
