  62
        -98.93394771
 C          1.7161810030        0.9332058854        0.7614000253
 C          2.0438679059       -0.3479423833        0.2600988206
 C          3.4836653616       -0.6474384980        0.0889385357
 C          4.3919445460        0.2721571740        0.4615283067
 C          5.8917038482        0.2083722893        0.3447955765
 C          6.3840820096        0.4403022199       -1.0927690892
 C          5.5966259808       -0.3018574639       -2.1693559627
 H          4.5466112499       -0.0087756961       -2.1131468900
 H          5.9724554449        0.0267889884       -3.1419174151
 C          5.7011068012       -1.8242977572       -2.1189522699
 H          6.7499362251       -2.1149338024       -2.2118062641
 H          5.1701768525       -2.2146903978       -2.9911199016
 C          5.1196282361       -2.4943854154       -0.8720585728
 H          5.7931402360       -2.3997400762       -0.0245368415
 H          5.0389339233       -3.5643489363       -1.0856240650
 C          3.7205829570       -2.0223610355       -0.4882139636
 H          3.0630850927       -2.1023945182       -1.3620095635
 H          3.3039692580       -2.7236087370        0.2453946450
 H          7.4361848875        0.1557711631       -1.1471039880
 H          6.3120614403        1.5096088252       -1.3061168071
 H          6.2568457293       -0.7383017219        0.7315958709
 H          6.2887720749        1.0028958213        0.9804805381
 O          4.0286281533        1.4731754052        0.9964243697
 C          2.7064031394        1.8334148416        1.1616596099
 O          2.5400603239        2.9566249074        1.6775161589
 O          1.1907182549       -1.2219074495       -0.0445024919
 C          0.2771299741        1.3799067505        0.9538538300
 C         -0.5426493722        0.2712083562        1.5652044979
 C         -0.2088578587       -0.1788765061        2.8399708277
 C         -0.9295785690       -1.1923266427        3.4405327963
 C         -2.0093870089       -1.7644482301        2.7917406755
 C         -2.3568434178       -1.3166475571        1.5221181688
 C         -1.6240444910       -0.3044063485        0.9172758255
 H         -1.8731798595       -0.0079408600       -0.0867637549
 N         -3.4820879098       -1.8406541728        0.8814496928
 S         -3.8689101779       -1.6063762773       -0.7170736437
 O         -5.0674590984       -2.3997026070       -0.8967116940
 O         -2.7813887247       -1.9097049084       -1.6163853891
 C         -4.2857478948        0.1228021411       -0.8172481177
 C         -3.8915047405        0.8413835184       -1.9282831260
 C         -4.2212601480        2.1847041550       -2.0133444217
 C         -4.9413341915        2.7829338041       -0.9908909579
 C         -5.3374484784        2.0459371691        0.1147951420
 C         -5.0100797029        0.7024155405        0.2052857476
 H         -5.2992393471        0.1030364391        1.0522263337
 H         -5.8976073167        2.5150087497        0.9075990519
 H         -5.1936257938        3.8295533918       -1.0567338017
 H         -3.9138579795        2.7584237858       -2.8732667130
 H         -3.3254483247        0.3356999621       -2.6950366655
 H         -3.9000828078       -2.6604973392        1.2912092433
 H         -2.5748348106       -2.5557113546        3.2596011753
 H         -0.6510886968       -1.5406710265        4.4239370863
 H          0.6365889302        0.2678494402        3.3462320269
 H          0.3327377907        2.1985847913        1.6907877111
 C         -0.3580595036        1.9673776984       -0.2981926397
 C          0.4672425364        2.7062088126       -1.3076550236
 C         -0.1344526965        1.3800336426       -1.6575949928
 H         -0.9639106231        1.3571649795       -2.3488257821
 H          0.5103151171        0.5181493795       -1.7304270808
 H          0.0512748563        3.5951167268       -1.7569291677
 H          1.5334833468        2.7591251836       -1.1416706643
 H         -1.3470523516        2.3702553433       -0.0995027307
