  62
        -98.94225428
 C         -1.8852986837       -1.2884051515       -0.0463525138
 C         -3.0534898643       -1.1930414641        0.7554991547
 C         -4.2246662589       -0.5674958463        0.1336464910
 C         -4.1541965811       -0.1458708816       -1.1415294282
 C         -5.2695380538        0.4829242833       -1.9316457520
 C         -5.4260125617        1.9920840775       -1.7002797565
 C         -6.0119056384        2.3847717230       -0.3434282147
 H         -6.2691438653        3.4443616877       -0.4003712498
 H         -6.9378822588        1.8339061731       -0.1755437233
 C         -5.0611044562        2.1714344185        0.8429035642
 H         -4.0379404557        2.0607276929        0.4756795557
 H         -5.0747383572        3.0556869948        1.4841753242
 C         -5.4036872126        0.9689100037        1.7226454191
 H         -6.3704347900        1.1312886797        2.2044030283
 H         -4.6454503960        0.8916028753        2.5061532526
 C         -5.4498076981       -0.3693757260        0.9737326747
 H         -6.3470036133       -0.4248015456        0.3574356316
 H         -5.4804078287       -1.1744707095        1.7119200605
 H         -6.0869043187        2.3745584484       -2.4816050533
 H         -4.4511596859        2.4687577708       -1.8275304194
 H         -5.0347840718        0.3189353937       -2.9856555733
 H         -6.2092622628       -0.0204575395       -1.7025304648
 O         -3.0249930750       -0.2688215690       -1.8849570807
 C         -1.8584892999       -0.8141480452       -1.3584446040
 O         -0.9064397098       -0.8082345951       -2.1615874249
 O         -3.1148667784       -1.6243224592        1.9375813801
 C         -0.6746294510       -1.9403929582        0.5989367154
 C          0.2715499300       -0.9186648110        1.1746357449
 C          0.7265216355       -1.0249858661        2.4835924684
 C          1.6119965009       -0.0947747680        3.0008183920
 C          2.0656617582        0.9552283842        2.2229549293
 C          1.6183879691        1.0688573219        0.9126215113
 C          0.7269195899        0.1385366751        0.3981829024
 H          0.3837837294        0.2321499672       -0.6217848076
 N          2.0831118329        2.1265910950        0.1036696096
 S          3.7424269820        2.2285794487       -0.1155222297
 O          4.3506052927        2.6786392887        1.1111170562
 O          3.9284011124        3.0770566254       -1.2700152390
 C          4.2555939489        0.5601312972       -0.4765337396
 C          4.1660570067        0.1139951741       -1.7801674702
 C          4.4974849846       -1.2010981349       -2.0631151071
 C          4.8954938525       -2.0474303531       -1.0395247902
 C          4.9771400615       -1.5848789908        0.2646280680
 C          4.6563403328       -0.2680140793        0.5529860362
 H          4.7159409390        0.1314058520        1.5517221283
 H          5.2861195925       -2.2457674284        1.0581202320
 H          5.1414656106       -3.0737305195       -1.2604082990
 H          4.4345336607       -1.5621776540       -3.0769803217
 H          3.8505993138        0.8029458905       -2.5475574125
 H          1.6229332190        2.1600522142       -0.7953652109
 H          2.7598152619        1.6859490927        2.6056139298
 H          1.9519909660       -0.1869393127        4.0209809948
 H          0.3710104501       -1.8368780896        3.1008549047
 H         -1.0910368132       -2.5130902809        1.4426218775
 C          0.0250032749       -2.9369556406       -0.3166051520
 C          1.3507085660       -2.6899530629       -0.9645552052
 C          1.2430918827       -3.6720608000        0.1603347642
 H          1.3295711548       -4.7254115932       -0.0574782983
 H          1.6547304407       -3.3793410175        1.1142847056
 H          1.4890220460       -3.0571772550       -1.9696603011
 H          1.8488785366       -1.7522121450       -0.7768155007
 H         -0.6909157052       -3.5084306633       -0.8995611763
