  62
        -98.94295693
 C          2.4969452095        0.8616763048        0.4811181427
 C          2.5586756005       -0.3364883091       -0.2702418099
 C          3.7183652321       -1.1954676249        0.0008678879
 C          4.6185760574       -0.8321441277        0.9324474637
 C          5.8396971713       -1.6132048664        1.3362606264
 C          7.0548719842       -1.3866885006        0.4263940949
 C          6.9615501855       -2.0324809864       -0.9566084616
 H          7.9574410879       -1.9819402147       -1.4013003274
 H          6.7072508687       -3.0871882295       -0.8473370948
 C          5.9626512371       -1.3555993658       -1.9055918803
 H          5.7190485875       -0.3596806663       -1.5283124061
 H          6.4253964912       -1.2214960132       -2.8860024290
 C          4.6645472802       -2.1341365095       -2.1198644743
 H          4.8829730030       -3.0802414238       -2.6200633039
 H          4.0175247106       -1.5473461480       -2.7768354317
 C          3.8862936493       -2.4307977009       -0.8312673047
 H          4.3884731652       -3.2107752096       -0.2594765760
 H          2.8888327302       -2.7829205535       -1.1054829118
 H          7.9266360545       -1.8002771755        0.9386669182
 H          7.2135149604       -0.3113625958        0.3167127357
 H          6.0991795133       -1.2842313982        2.3448296639
 H          5.6007269165       -2.6765248847        1.3682860961
 O          4.5065770150        0.3165906485        1.6522695083
 C          3.4584151515        1.1957788464        1.4343000731
 O          3.4876299918        2.2194123388        2.1479824767
 O          1.6946505560       -0.6732778257       -1.1205218564
 C          1.3516745335        1.8332368241        0.2603292862
 C          0.0340026123        1.1455538265        0.5243379502
 C         -0.1403165666        0.4769453845        1.7336277033
 C         -1.3298109005       -0.1619628973        2.0235037438
 C         -2.3745935196       -0.1497847966        1.1152512916
 C         -2.2176641652        0.5247348647       -0.0865834353
 C         -1.0210930356        1.1723365809       -0.3727556353
 H         -0.9167184239        1.6910663051       -1.3129862374
 N         -3.2682012770        0.5363694459       -1.0167338576
 S         -4.8279480443        0.8579500220       -0.4955097489
 O         -5.5151071572        1.3677510410       -1.6620742674
 O         -4.8314211186        1.7068938806        0.6731304244
 C         -5.4903410898       -0.7444016215       -0.0900649714
 C         -6.0372080984       -0.9667277591        1.1584544109
 C         -6.5626144771       -2.2165389028        1.4475903084
 C         -6.5330390715       -3.2162463216        0.4875032136
 C         -5.9819269634       -2.9762838386       -0.7624971450
 C         -5.4560882419       -1.7288466828       -1.0580722872
 H         -5.0226834772       -1.5026008441       -2.0180259897
 H         -5.9602551312       -3.7565052050       -1.5062762547
 H         -6.9420593469       -4.1881484279        0.7144704228
 H         -6.9916050184       -2.4049012968        2.4187029060
 H         -6.0348519037       -0.1609102862        1.8753096219
 H         -3.0567136833        1.0250367106       -1.8742272983
 H         -3.3033054319       -0.6512302871        1.3329045105
 H         -1.4458740262       -0.6787748078        2.9642197341
 H          0.6764644110        0.4643230406        2.4430707596
 H          1.4752196844        2.6262857219        1.0124355949
 C          1.4573957687        2.4506299176       -1.1186475657
 C          0.8896598138        3.8120700546       -1.3827660226
 C          2.3743719282        3.6179749155       -1.3192007784
 H          2.9427191897        3.6767026778       -2.2353593265
 H          2.9041036961        3.9865634295       -0.4526723661
 H          0.4411305433        4.0085680349       -2.3452953737
 H          0.4089506728        4.3217409269       -0.5611617694
 H          1.4103122253        1.7118630412       -1.9107857200
