  62
        -98.94884155
 C         -1.9248117441       -0.6635198817       -0.3000994494
 C         -1.1206174609       -1.4829300374       -1.1259072541
 C         -0.5749231940       -2.6945200770       -0.4982685635
 C         -0.8305567965       -2.9309452836        0.8016992746
 C         -0.3217584921       -4.1134476308        1.5740899659
 C          1.0242549127       -3.8115722545        2.2454778557
 C          2.0681778876       -3.2224037610        1.2969474003
 H          1.7489576122       -2.2193124869        1.0027773130
 H          2.9914884187       -3.0978394553        1.8678955329
 C          2.3448811675       -4.0768001589        0.0518173748
 H          3.4248690961       -4.1265516363       -0.1024989547
 H          1.9940999963       -5.0959586978        0.2194110441
 C          1.7370390158       -3.5345069322       -1.2423502022
 H          2.0292678690       -2.4897683025       -1.3630847953
 H          2.1672205637       -4.0934571922       -2.0779006256
 C          0.2116758324       -3.6363211410       -1.3687074692
 H         -0.1002246886       -4.6671295867       -1.1855081829
 H         -0.0520835260       -3.3769152573       -2.3985818929
 H          0.8577996848       -3.0930260372        3.0517553574
 H          1.4059357591       -4.7360443715        2.6840118609
 H         -1.0545888194       -4.3572220311        2.3455279581
 H         -0.2205574971       -4.9633268180        0.9011600939
 O         -1.5743436874       -2.1003585402        1.5748396884
 C         -2.1348138379       -0.9463724011        1.0497230037
 O         -2.7997243217       -0.2807887877        1.8671540451
 O         -0.8762784804       -1.2196217893       -2.3350788215
 C         -2.5429949328        0.5982099607       -0.8797625109
 C         -2.0668673324        1.7909236853       -0.0881006347
 C         -2.9034934708        2.7676143523        0.4336042898
 C         -2.3802810494        3.7878950968        1.2102590769
 C         -1.0288708185        3.8455237189        1.4956388931
 C         -0.1796601728        2.8819773639        0.9603351175
 C         -0.7017634395        1.8915665729        0.1478391590
 H         -0.0453097836        1.1449728989       -0.2681054756
 N          1.1974963404        2.9100703094        1.2147083824
 S          2.1318972301        1.5216745632        1.2030981204
 O          1.3853113143        0.3455655202        1.5808819973
 O          3.2650831756        1.8562480917        2.0407051648
 C          2.6846222863        1.4162022819       -0.4858634405
 C          2.2315521415        0.4035419523       -1.3051795049
 C          2.6602243633        0.3565638952       -2.6221867352
 C          3.5373614395        1.3202367139       -3.0942775560
 C          3.9916272329        2.3291541113       -2.2574488285
 C          3.5621175209        2.3811375139       -0.9416043725
 H          3.8963694504        3.1422433047       -0.2565397737
 H          4.6760106823        3.0750556727       -2.6281973813
 H          3.8679252911        1.2820676157       -4.1201980067
 H          2.2933583625       -0.4267788979       -3.2667097165
 H          1.5437210886       -0.3290222467       -0.9094743402
 H          1.4939864015        3.5680361489        1.9194735372
 H         -0.6315167609        4.6225355439        2.1307603738
 H         -3.0402806044        4.5380417871        1.6192432333
 H         -3.9644996120        2.7222562586        0.2507425046
 H         -2.1495822982        0.6769833681       -1.9041566188
 C         -4.0502135918        0.4707771879       -0.9419477854
 C         -4.8294880544        1.2238591757       -1.9774110685
 C         -4.6691630883       -0.2613327771       -2.0934827526
 H         -5.5249714596       -0.8914630653       -1.9031115446
 H         -4.0018534874       -0.6489067984       -2.8492545407
 H         -5.8000274501        1.6134079144       -1.7097488673
 H         -4.2761435075        1.8479121608       -2.6624664921
 H         -4.4952670752        0.3315366610        0.0371555339
