  62
        -98.93874825
 C          1.8090429802        0.7772558498        0.2972318794
 C          2.0931575201       -0.5433136402       -0.1384818906
 C          3.4494296901       -0.7907560202       -0.6424410507
 C          4.3263960701        0.2283544298       -0.6857671409
 C          5.7544492600        0.1137405697       -1.1331785711
 C          6.6860081302       -0.1955261403        0.0469978888
 C          6.2078178803       -1.3521676002        0.9246347289
 H          6.9569561704       -1.4989509502        1.7057529688
 H          5.2788870703       -1.0620435902        1.4208706790
 C          5.9883528902       -2.6717080303        0.1715646790
 H          6.5070689800       -2.6416335603       -0.7872852811
 H          6.4293519102       -3.4841136702        0.7530654389
 C          4.5197205401       -3.0332758402       -0.0581131308
 H          3.9749374502       -2.9706911902        0.8871953292
 H          4.4744325201       -4.0726962902       -0.3937503108
 C          3.7780862500       -2.1845069702       -1.0985706308
 H          4.3501661099       -2.1602532303       -2.0283749308
 H          2.8169494400       -2.6671732102       -1.2978308306
 H          7.6786859301       -0.4213092303       -0.3468839713
 H          6.7631409603        0.6982286697        0.6705167888
 H          5.8310852199       -0.6693911103       -1.8850888911
 H          6.0519324900        1.0641092297       -1.5795916411
 O          4.0161275902        1.4841983598       -0.2806437309
 C          2.7567525802        1.7988507198        0.2223003493
 O          2.6379504103        2.9931741498        0.5487464293
 H         -2.0309885698        0.0413806099        0.2924051100
 C         -1.7720255099        0.8463205199       -0.3769640901
 C         -0.5330857598        1.4580308798       -0.2607044703
 C         -0.2009617899        2.4750140698       -1.1497907103
 C         -1.1005335601        2.8716158098       -2.1226379002
 C         -2.3476010201        2.2786807098       -2.2161928700
 C         -2.6872595100        1.2582648099       -1.3355761000
 N         -3.9335980100        0.6261998199       -1.4119257798
 S         -4.6917074498        0.0656742299       -0.0298756797
 O         -6.0847895899       -0.0444900601       -0.4045996095
 O         -4.4032889597        0.9034786699        1.1101273702
 C         -4.0201695398       -1.5653540401        0.2060104002
 C         -4.0612464300       -2.4481378701       -0.8547687997
 C         -3.5439293200       -3.7219601201       -0.6851354298
 C         -2.9992255298       -4.0901975301        0.5357349102
 C         -2.9708438497       -3.1942307401        1.5928976501
 C         -3.4865891797       -1.9184205101        1.4293556302
 H         -3.4761771596       -1.1884581801        2.2240475102
 H         -2.5445895496       -3.4813021901        2.5408487101
 H         -2.5919404698       -5.0805533301        0.6647797601
 H         -3.5625408701       -4.4223531201       -1.5046213498
 H         -4.4930130701       -2.1263093701       -1.7877472397
 H         -4.5808035101        1.0221068199       -2.0772386497
 H         -3.0523639102        2.6007097898       -2.9676597300
 H         -0.8328991701        3.6620903298       -2.8077609603
 H          0.7617642601        2.9561879098       -1.0635985005
 C          0.4091388103        1.0183763999        0.8301575896
 H          0.0671749303        0.0274774699        1.1706153997
 C          0.3622566805        1.9442940799        2.0376309796
 C         -0.1720925095        3.3408155799        1.9929753396
 C         -0.9518915794        2.2667434399        2.6870393098
 H         -1.0041899393        2.2815160199        3.7654639098
 H         -1.8545746795        1.9130851999        2.2085941299
 H         -0.5456586296        3.7153292299        1.0531213697
 H          0.3325868606        4.0883148799        2.5857706696
 H          1.2032868906        1.7783349099        2.7038601695
 O          1.2457001701       -1.4755187902       -0.0995142604
