  62
        -98.93503622
 C          2.1827412164        1.2364885107        0.5049131773
 C          2.0753042521        0.2427893447       -0.4970170287
 C          2.8551804845       -0.9979103953       -0.2922598377
 C          3.5816244010       -1.1355999987        0.8314118880
 C          4.4812493385       -2.2748334404        1.2311512975
 C          5.8162757256       -2.2726241698        0.4688685346
 C          5.7015038965       -2.0054699260       -1.0295199585
 H          5.2131079342       -1.0420053162       -1.1858154083
 H          6.7151994907       -1.9243100513       -1.4303265901
 C          4.9684223969       -3.0806092633       -1.8280872884
 H          5.0411557852       -2.8068264392       -2.8836298207
 H          5.4802624404       -4.0364761110       -1.6968002114
 C          3.4880985240       -3.2722858624       -1.4902383318
 H          3.3632233910       -3.8409590454       -0.5724480982
 H          3.0460652996       -3.8754045643       -2.2887721303
 C          2.6772014655       -1.9818181116       -1.4232805640
 H          1.6099056500       -2.2384260387       -1.4186660928
 H          2.8307766615       -1.4137758222       -2.3480359017
 H          6.3075879142       -3.2329740668        0.6335019198
 H          6.4483522105       -1.4916951108        0.8986453369
 H          4.6886182463       -2.1506778881        2.2965076040
 H          3.9629139285       -3.2208261822        1.1041525406
 O          3.6156604756       -0.1694266043        1.7947956068
 C          2.9159268693        1.0145203165        1.6715329515
 O          3.0150902123        1.7749871785        2.6565618555
 O          1.3730846183        0.3680039604       -1.5327940728
 C          1.4120986997        2.5444037703        0.4236350572
 C         -0.0195677519        2.2529746020        0.0467115270
 C         -0.6356429409        2.7320222991       -1.1007947975
 C         -1.9436448738        2.3828062896       -1.3891418683
 C         -2.6633888631        1.5579189106       -0.5442441576
 C         -2.0566148696        1.0745358825        0.6076826486
 C         -0.7499221228        1.4305970450        0.8967561070
 H         -0.2726956288        1.0439758681        1.7908138176
 N         -2.7855918921        0.2310509245        1.4754167258
 S         -3.2377826172       -1.2628843262        0.8410910912
 O         -3.4544683782       -2.1099405313        1.9950501903
 O         -2.2823935022       -1.7406795463       -0.1325161641
 C         -4.8019504086       -0.9339905610        0.0587009091
 C         -4.9387240860       -1.1113635406       -1.3039768041
 C         -6.1659623416       -0.8486159108       -1.8929154669
 C         -7.2275111189       -0.4160557638       -1.1127185116
 C         -7.0737263980       -0.2454888286        0.2552997578
 C         -5.8501966407       -0.5075042453        0.8507188336
 H         -5.6878707310       -0.3945289412        1.9095747208
 H         -7.9017558227        0.0903775268        0.8583614786
 H         -8.1806935700       -0.2111687152       -1.5739974843
 H         -6.2870656247       -0.9810778236       -2.9560287123
 H         -4.0821206801       -1.4426228358       -1.8692073975
 H         -2.3150980692        0.0788346024        2.3572242039
 H         -3.6809346333        1.2825539634       -0.7688414148
 H         -2.4079377895        2.7546448555       -2.2897212885
 H         -0.0813037933        3.3530425757       -1.7849127592
 H          1.4137849078        2.9340732770        1.4554830624
 C          2.0656541689        3.6121283271       -0.4397731765
 C          3.5552457814        3.6616995840       -0.6003882374
 C          2.6868368029        3.3098904718       -1.7688253006
 H          2.5778299830        4.0372649648       -2.5600908088
 H          2.6655521062        2.2873743709       -2.1097336969
 H          4.0413053225        4.6256788786       -0.5886499467
 H          4.1332404620        2.8758974824       -0.1353153245
 H          1.5621913088        4.5692203066       -0.3437005704
