  62
        -98.94558006
 C         -1.4575467191       -1.4937455417        0.0561764501
 C         -2.4497124796       -0.8537753923        0.8410616899
 C         -3.0584880005        0.3491185872        0.2621695098
 C         -2.6577861708        0.7816164473       -0.9464965903
 C         -3.1902711616        1.9824226969       -1.6803314004
 C         -2.5443517526        3.3088237374       -1.2564063006
 C         -2.9706352931        3.8306890772        0.1163374094
 H         -2.6236742039        4.8634983575        0.1873153292
 H         -4.0594601331        3.8475605664        0.1778599093
 C         -2.4016746426        3.0429824678        1.3050645695
 H         -1.5404712621        2.4505911184        0.9850002796
 H         -2.0284590331        3.7395851182        2.0598826594
 C         -3.4056693319        2.1232307671        2.0009562695
 H         -4.1879084924        2.7245418666        2.4704787594
 H         -2.8766951816        1.5829917976        2.7908853896
 C         -4.0708344011        1.0916369965        1.0804905996
 H         -4.5921319406        0.3627151462        1.7064115397
 H         -4.7987093514        1.5810195659        0.4331328395
 H         -2.8167937131        4.0572950371       -2.0040409707
 H         -1.4576475225        3.1979872482       -1.2769825005
 H         -4.2705229317        2.0445810661       -1.5459845805
 H         -2.9817666214        1.8191645169       -2.7398344104
 O         -1.6989925903        0.1445789080       -1.6669009702
 C         -1.0429388195       -0.9790349515       -1.1725919600
 O         -0.1417965691       -1.4010076209       -1.9185789699
 O         -2.8103810794       -1.2697307124        1.9751086900
 C         -0.7678913283       -2.7116065711        0.6426471402
 C          0.7286355716       -2.5560606400        0.5329155203
 C          1.5578091023       -3.4721981194       -0.1000669496
 C          2.9239067622       -3.2571732884       -0.1549828395
 C          3.4880185313       -2.1298381180        0.4117770204
 C          2.6670835506       -1.2067556585        1.0505259402
 C          1.3016640708       -1.4293506195        1.1120127102
 H          0.6722440102       -0.7062951699        1.6113634801
 N          3.2143137197       -0.0617423280        1.6589467401
 S          2.5360326986        1.4392900315        1.3848446799
 O          3.5202017579        2.3712963722        1.8929239199
 O          1.2252278685        1.5147244406        1.9772962498
 C          2.4290791986        1.5948325512       -0.3859174701
 C          3.5967218885        1.7396805020       -1.1098054801
 C          3.5207801885        1.8258653417       -2.4898226401
 C          2.2862220986        1.7632741807       -3.1189494801
 C          1.1235077087        1.6243063100       -2.3783180102
 C          1.1961077287        1.5363403302       -0.9978573302
 H          0.3175357387        1.4175021296       -0.3825165902
 H          0.1624844087        1.5610753192       -2.8631527002
 H          2.2270020286        1.8237259406       -4.1941755001
 H          4.4215209285        1.9380803323       -3.0716206701
 H          4.5358482585        1.7994931227       -0.5838616400
 H          4.2209924097       -0.0058957473        1.5969313802
 H          4.5532620312       -1.9620673072        0.3645454204
 H          3.5570973927       -3.9744155380       -0.6545757894
 H          1.1337492430       -4.3451299898       -0.5678109595
 H         -1.0274922283       -2.6790561111        1.7149536802
 C         -1.2829366272       -4.0430806415        0.1169510304
 C         -2.6794401471       -4.1761184426       -0.4109918797
 C         -1.5122354670       -4.2989898519       -1.3415135296
 H         -1.2727401862       -5.2771459917       -1.7324893295
 H         -1.3109204875       -3.4919910818       -2.0276896497
 H         -3.2388701265       -5.0655288430       -0.1621887396
 H         -3.2828813978       -3.2812114831       -0.4611170898
 H         -0.9144180167       -4.8780756112        0.7052861005
