  62
        -98.93722936
 C         -1.8411894199       -0.1107902807       -0.1850203502
 C         -2.9321385198       -0.2574411313       -1.0696228702
 C         -4.2759134499       -0.3468681311       -0.4657146603
 C         -4.3858371200       -0.2933055604        0.8751034297
 C         -5.6396528301       -0.3312354601        1.7080387696
 C         -6.4091797803        0.9993132898        1.6842457187
 C         -6.5404984102        1.6419363591        0.3059743483
 H         -7.0038123003        2.6230104191        0.4399383577
 H         -5.5444843902        1.8082705489       -0.1082661716
 C         -7.3844653500        0.8609706384       -0.6984849313
 H         -7.4666271900        1.4743401879       -1.5995023217
 H         -8.3908596400        0.7283780685       -0.2950387713
 C         -6.8402030698       -0.5096011918       -1.1065525305
 H         -7.3983244797       -0.8312479623       -1.9908261303
 H         -7.0292670598       -1.2525750914       -0.3363701301
 C         -5.3655345098       -0.5185545718       -1.4967880903
 H         -5.1446926196       -1.4668200021       -2.0021726697
 H         -5.1899885198        0.2554263178       -2.2527754207
 H         -7.4014416103        0.8311373700        2.1062782787
 H         -5.8822925504        1.7049998603        2.3309936184
 H         -6.2749854400       -1.1520344903        1.3885427100
 H         -5.3269025802       -0.5331877894        2.7348684497
 O         -3.3016727201       -0.1507089698        1.6907375797
 C         -2.0133899601       -0.0580014599        1.1977097298
 O         -1.1320423202        0.0629107406        2.0689690798
 O         -2.7962988697       -0.3139306420       -2.3230761602
 C         -0.4391345599       -0.0149566509       -0.7532146101
 C          0.4405613802       -1.1279561605       -0.2379990993
 C         -0.0954161297       -2.3985618504       -0.0455311987
 C          0.6892785704       -3.4357068601        0.4187824820
 C          2.0342074003       -3.2368172798        0.6756701720
 C          2.5861276202       -1.9801600099        0.4655880214
 C          1.7896236501       -0.9340674402        0.0192883807
 H          2.2387798000        0.0333510998       -0.1335163198
 N          3.9475659901       -1.7432078996        0.7105423514
 S          4.8367019202       -0.8592204701       -0.3994313390
 O          4.3281186103       -1.0237458609       -1.7409530990
 O          6.2071826402       -1.2747543998       -0.1852230187
 C          4.6728072099        0.8356973002        0.1187505900
 C          4.6106597299        1.8237462896       -0.8435626106
 C          4.5430496397        3.1490713398       -0.4421751913
 C          4.5384294796        3.4609562506        0.9084862085
 C          4.6015364696        2.4563610811        1.8624714391
 C          4.6746852897        1.1300524009        1.4678706398
 H          4.7236928898        0.3256551013        2.1825312703
 H          4.5941863294        2.7026103217        2.9121022089
 H          4.4837065094        4.4924292908        1.2192587279
 H          4.4931344497        3.9307492094       -1.1836555918
 H          4.6042170801        1.5363027190       -1.8827961504
 H          4.4634535502       -2.5475610393        1.0371830819
 H          2.6506509804       -4.0473739195        1.0340431325
 H          0.2528887104       -4.4111226101        0.5739095625
 H         -1.1431553797       -2.5626117907       -0.2577337787
 H         -0.5530669398       -0.1529034115       -1.8398227000
 C          0.1315984599        1.3651628893       -0.4960417608
 C          1.0690135600        2.0008339389       -1.4772838010
 C         -0.3348897501        2.5074619588       -1.3464735815
 H         -0.4968225503        3.4668964490       -0.8790217120
 H         -1.0377307100        2.2808409883       -2.1350506614
 H          1.8713047399        2.6139629592       -1.0952029513
 H          1.3278551701        1.4365289084       -2.3609596307
 H          0.2883890098        1.5565953399        0.5597418991
