  62
        -98.93502532
 C         -2.6803699165       -0.2676083390       -0.4331702106
 C         -2.9535570802        0.6553716582        0.6087480127
 C         -2.6081441103        2.0646808679        0.3671558007
 C         -2.0662471470        2.4040757408       -0.8151705063
 C         -1.5275052630        3.7449279120       -1.2285596103
 C         -0.0201848422        3.8227282197       -0.9250904844
 C          0.3266662193        4.3330944108        0.4723186061
 H          1.4087259138        4.2386870061        0.5899880035
 H          0.0745690457        5.3937178840        0.5445899520
 C         -0.3529218190        3.5841215229        1.6214760592
 H         -0.3172057025        2.5095722385        1.4244258232
 H          0.2317263691        3.7581928675        2.5274269034
 C         -1.7998025229        4.0381524592        1.8677865793
 H         -1.9292339793        4.2660898403        2.9277987323
 H         -1.9757451194        4.9678240532        1.3266074077
 C         -2.8841913530        3.0143795019        1.5006537497
 H         -3.8184354839        3.5457917794        1.2903123378
 H         -3.0776593676        2.3668459447        2.3615596274
 H          0.4076627921        2.8244109545       -1.0571761821
 H          0.4520170669        4.4838036402       -1.6550468221
 H         -2.0702554843        4.5497995277       -0.7415668290
 H         -1.6719535289        3.8220649199       -2.3081198398
 O         -1.8716642576        1.5004217653       -1.8104312345
 C         -2.1199515008        0.1500285012       -1.6398847606
 O         -1.8052481756       -0.5376175279       -2.6340534354
 O         -3.4555427882        0.3042012425        1.7114592414
 C         -2.8909952315       -1.7355464973       -0.0936954041
 C         -1.6110981420       -2.2453038044        0.5288040731
 C         -1.5868690143       -2.8305879646        1.7884334743
 C         -0.3849908123       -3.1675461047        2.3884403605
 C          0.8172962195       -2.9033921390        1.7559985432
 C          0.7986617544       -2.3365912891        0.4907927232
 C         -0.4045254039       -2.0376765637       -0.1241926868
 H         -0.3979347563       -1.5834264293       -1.1047742970
 N          2.0296322008       -1.9610382194       -0.1259564400
 S          2.3759285468       -0.3491130806        0.2885405040
 O          2.2509149739       -0.2243177275        1.7186008058
 O          1.5807143318        0.5595631837       -0.5104839670
 C          4.0921769199       -0.2351610724       -0.1799764946
 C          4.4444521849        0.3998953353       -1.3545024194
 C          5.7817195521        0.4428594729       -1.7178585683
 C          6.7365394025       -0.1511090372       -0.9068621491
 C          6.3664297516       -0.7865552760        0.2693641334
 C          5.0319039504       -0.8314828884        0.6385521565
 H          4.6961918347       -1.3057345528        1.5455736861
 H          7.1120908845       -1.2458806795        0.8979610210
 H          7.7758993947       -0.1166038720       -1.1928110952
 H          6.0715459883        0.9380961397       -2.6306598859
 H          3.6682068332        0.8521968537       -1.9513325235
 H          1.9412055011       -1.9814910643       -1.1354175165
 H          1.7614807828       -3.1073326417        2.2330794764
 H         -0.3846446796       -3.6122170223        3.3719270496
 H         -2.5170254497       -2.9879835623        2.3143579130
 H         -3.6699892296       -1.7538706596        0.6805286113
 C         -3.3364116803       -2.6088886725       -1.2468559315
 C         -4.0472810756       -3.8940823658       -0.9489939518
 C         -4.7986848701       -2.7421029464       -1.5438924682
 H         -5.1082651768       -2.8005234291       -2.5762415110
 H         -5.4871117690       -2.2003602282       -0.9118249325
 H         -3.8411803888       -4.7504300568       -1.5721784239
 H         -4.2305658173       -4.1366530777        0.0866397146
 H         -2.6588319206       -2.5895813485       -2.0899854748
