  62
        -98.93308001
 C         -2.5893924884       -1.3732596868        0.2821341323
 C         -2.8468169193       -0.4574275767       -0.7661025985
 C         -3.9289753389        0.5188710086       -0.5312006707
 C         -4.5979340416        0.5072919602        0.6333929874
 C         -5.7563246260        1.3707395116        1.0669185393
 C         -5.6958324711        2.8669788409        0.7320841470
 C         -4.2879746153        3.4795843192        0.7516846187
 H         -3.5823785117        2.7814688088        1.2055875877
 H         -4.3008006968        4.3785460643        1.3706462366
 C         -3.7894370807        3.8757122259       -0.6401274445
 H         -2.9894307321        4.6119660109       -0.5308344484
 H         -4.6058509565        4.3586083281       -1.1814968676
 C         -3.2370530185        2.7305212725       -1.4876534733
 H         -2.2915309287        2.3809173045       -1.0636249897
 H         -3.0145787560        3.1240552964       -2.4826423307
 C         -4.1617433044        1.5107090404       -1.6351081388
 H         -3.8963878951        0.9978279233       -2.5636970905
 H         -5.2047478646        1.8120783915       -1.6919698224
 H         -6.3251649386        3.3779095552        1.4627030071
 H         -6.1454608756        3.0413311128       -0.2444370144
 H         -6.6710880889        0.9465480086        0.6425338207
 H         -5.8150573818        1.2404996810        2.1501979338
 O         -4.3072563080       -0.3833919400        1.6234138695
 C         -3.3137540708       -1.3323323862        1.4768211932
 O         -3.1733574262       -2.0802793389        2.4647568743
 H         -0.2401761475       -0.3319428251       -0.8285685666
 C          0.3543704768       -0.8407769507       -0.0836952778
 C         -0.1658707246       -1.9614483457        0.5493724774
 C          0.6184903294       -2.6158403574        1.4916817697
 C          1.8912385916       -2.1593807466        1.7877620970
 C          2.4064156719       -1.0440320428        1.1519898415
 C          1.6302826350       -0.3820491086        0.2095347530
 N          2.1453845430        0.7558096928       -0.4405038848
 S          3.6139099338        0.5725430109       -1.2394176552
 O          3.6261454485        1.5974426147       -2.2598844046
 O          3.8009071347       -0.7872765900       -1.6905717542
 C          4.8272172969        0.9765283973       -0.0006202154
 C          4.7250197313        2.1974006568        0.6372518970
 C          5.6694871847        2.5328850075        1.5941195941
 C          6.6961272924        1.6489624992        1.8922212160
 C          6.7865634580        0.4286106729        1.2404615013
 C          5.8439426842        0.0860144719        0.2833310990
 H          5.8695761899       -0.8538773179       -0.2445603911
 H          7.5854598208       -0.2568744796        1.4734412789
 H          7.4302755645        1.9133178714        2.6368545969
 H          5.6024185396        3.4807675579        2.1034422916
 H          3.9140506169        2.8558615874        0.3738730544
 H          1.4737844484        1.1958637016       -1.0542184253
 H          3.3976745755       -0.6852374473        1.3765570788
 H          2.4891505646       -2.6776470070        2.5216825778
 H          0.2203442113       -3.4831667539        1.9979339819
 C         -1.5399980854       -2.4703631545        0.1974258447
 H         -1.8300668437       -3.1980868840        0.9714425710
 C         -1.5701267929       -3.2022001380       -1.1399945734
 C         -0.4715998372       -3.1428490087       -2.1548318891
 C         -0.6876422198       -4.3947659332       -1.3620789876
 H         -1.0997104675       -5.2607642179       -1.8574315310
 H          0.0355301961       -4.6255688174       -0.5942749175
 H          0.4032640339       -2.5478208954       -1.9413777902
 H         -0.7559709107       -3.1287805714       -3.1962702821
 H         -2.5784327682       -3.2676466870       -1.5369694737
 O         -2.2234208808       -0.4378490079       -1.8597974632
