  62
        -98.93684678
 C         -2.4759907676        0.3917452446        0.1753033769
 C         -2.1016345862        1.4451181458        1.0415593542
 C         -1.4770170537        2.6103025615        0.4083772161
 C         -1.3010967542        2.6266384702       -0.9254139360
 C         -0.6981153571        3.7495228210       -1.7258312420
 C          0.8357353013        3.7248697421       -1.7641896341
 C          1.5210396901        4.1701592543       -0.4718088949
 H          2.5726090841        4.3442842679       -0.7079659377
 H          1.0973633722        5.1195240440       -0.1417205465
 C          1.4382701745        3.1420125023        0.6644678794
 H          2.4176689298        3.0368514337        1.1385953500
 H          1.1873386477        2.1605966626        0.2551729928
 C          0.4419094808        3.4828474126        1.7728723209
 H          0.4315133444        2.6455375258        2.4762550573
 H          0.7789145758        4.3732984133        2.3097116664
 C         -0.9951725721        3.7213657330        1.2921538445
 H         -1.6470407370        3.7522731557        2.1692546615
 H         -1.0625721697        4.6768180669        0.7713190998
 H          1.1585644787        2.7104513847       -2.0111704975
 H          1.1545014819        4.3888730756       -2.5712191883
 H         -1.0406944218        4.7073339220       -1.3325104672
 H         -1.0714809452        3.6365823635       -2.7459288231
 O         -1.6917596277        1.6026270206       -1.7273812616
 C         -2.2439052318        0.4448687401       -1.1999023225
 O         -2.4966233298       -0.4300421668       -2.0485156883
 O         -2.2894131801        1.4135131161        2.2901380090
 C         -3.0452982597       -0.8873821310        0.7820576182
 C         -2.1670070161       -2.0219771323        0.3095621961
 C         -2.5212737228       -3.1579592567       -0.4050259687
 C         -1.5514014756       -4.0517236069       -0.8330952669
 C         -0.2103160328       -3.8284247946       -0.5926798912
 C          0.1588477269       -2.7014265425        0.1334594579
 C         -0.8162664145       -1.8432006593        0.6042494042
 H         -0.5107615734       -0.9750525177        1.1716582979
 N          1.5092296563       -2.4076984188        0.4027829337
 S          1.9314682428       -0.7673137172        0.3759137599
 O          1.6955952973       -0.2170785164        1.6869959839
 O          1.2927073925       -0.1036367834       -0.7378324277
 C          3.6888265253       -0.8883482886        0.0968960230
 C          4.1905631241       -0.6991020555       -1.1764448444
 C          5.5550970539       -0.8259374666       -1.3855451737
 C          6.3892108604       -1.1422861587       -0.3239525871
 C          5.8710487269       -1.3284784263        0.9492220875
 C          4.5082085950       -1.2009731692        1.1652551526
 H          4.0597713288       -1.3255162018        2.1369658627
 H          6.5228441788       -1.5711634265        1.7727798087
 H          7.4502960387       -1.2411871868       -0.4895302616
 H          5.9602352345       -0.6776947569       -2.3734938105
 H          3.5032766424       -0.4483761790       -1.9687708258
 H          2.1444452266       -2.9609281791       -0.1568752777
 H          0.5416082671       -4.5074475611       -0.9650477197
 H         -1.8514823377       -4.9246621055       -1.3932037557
 H         -3.5439145475       -3.3550877100       -0.6697558725
 H         -2.8654269287       -0.7803445109        1.8662029071
 C         -4.5557755314       -0.8950379363        0.6143941021
 C         -5.2916236255       -1.3639077263       -0.6013050073
 C         -5.4349476218       -2.1067252744        0.6950891001
 H         -6.3693460967       -2.0090840341        1.2280594796
 H         -4.9741258738       -3.0740761940        0.8069983385
 H         -6.1258120867       -0.7668335500       -0.9409943886
 H         -4.7135499700       -1.7826641840       -1.4085508851
 H         -4.9569123360        0.0022445662        1.0819897493
