  62
        -98.93154865
 C         -2.2389500131        0.7585853012        0.1925703557
 C         -3.5519823156        1.2505405014        0.3973301895
 C         -4.6456514502        0.5190294059       -0.2641041792
 C         -4.3439604968       -0.5271830940       -1.0518162469
 C         -5.3022377172       -1.4437497006       -1.7605235817
 C         -5.6016219464       -2.6826015143       -0.8991972546
 C         -6.7508358519       -2.5149185744        0.0943124881
 H         -7.6951961424       -2.4810054652       -0.4528920245
 H         -6.7683311802       -3.4079372882        0.7233383465
 C         -6.6642639556       -1.2805480433        0.9959632834
 H         -5.6401081230       -1.1572006796        1.3532710707
 H         -7.2908178907       -1.4614578998        1.8715167417
 C         -7.1370914965        0.0070228666        0.3046664499
 H         -7.6568500300       -0.2553673950       -0.6166249883
 H         -7.8682694965        0.5100278880        0.9406497004
 C         -6.0345826364        1.0330480818        0.0005096572
 H         -6.3458052504        1.6502637965       -0.8486778194
 H         -5.9209052861        1.7100443024        0.8528926541
 H         -4.6859327984       -2.9467652404       -0.3633412008
 H         -5.8446504367       -3.5178610467       -1.5591404031
 H         -6.2150869001       -0.9179606032       -2.0241813510
 H         -4.8036980093       -1.7683847467       -2.6761740658
 O         -3.0630539969       -0.9311720274       -1.2721209343
 C         -1.9805487886       -0.3116658257       -0.6642366885
 O         -0.8796198141       -0.8017402743       -0.9795704932
 H          1.4956399749        0.5251883092        0.9823394482
 C          1.3011389037        1.1674679182        0.1413107024
 C          0.0429672740        1.7158757335       -0.0499805946
 C         -0.1737881151        2.5226127204       -1.1641855474
 C          0.8387968131        2.7553471085       -2.0734543941
 C          2.0886010733        2.1912622756       -1.8885547682
 C          2.3201791380        1.3946983577       -0.7733951450
 N          3.6043440121        0.8645373233       -0.5454084922
 S          3.8291989962       -0.6762425839        0.1039027499
 O          3.3086284486       -1.6895522796       -0.7873622207
 O          3.3524483206       -0.6998989314        1.4626105205
 C          5.6133398480       -0.7252847349        0.0997226373
 C          6.2927059291       -0.1126587698        1.1354576185
 C          7.6783452413       -0.1201593147        1.1260878325
 C          8.3588648988       -0.7357505506        0.0860100975
 C          7.6640111624       -1.3485190622       -0.9457384009
 C          6.2778464707       -1.3438192282       -0.9421380134
 H          5.6964167672       -1.8167785913       -1.7174042746
 H          8.1954051626       -1.8293085665       -1.7512319465
 H          9.4373819435       -0.7406115401        0.0809706585
 H          8.2218074219        0.3525035046        1.9282629287
 H          5.7210804420        0.3453770761        1.9255643307
 H          4.2035616973        0.9723265883       -1.3537548746
 H          2.8782129710        2.3655448744       -2.6040528419
 H          0.6539677692        3.3750349696       -2.9382570488
 H         -1.1552621424        2.9524822642       -1.3143192606
 C         -1.1032262107        1.4753560310        0.8996214741
 H         -1.5273670143        2.4561819873        1.1742132525
 C         -0.6711082777        0.8108420161        2.1981427285
 C         -1.6282599670       -0.0008906225        3.0170500256
 C         -0.4873592468       -0.6714804000        2.3153257492
 H          0.3433610412       -1.0391900757        2.9006393984
 H         -0.6938537524       -1.2713726561        1.4420825518
 H         -1.5903178137        0.0914344416        4.0919488873
 H         -2.6243236474       -0.1471650126        2.6250553727
 H          0.0296564813        1.4273488719        2.7535440127
 O         -3.8016096670        2.2605506329        1.1084427288
