  62
        -98.94002525
 C         -2.2388221709       -1.0860465539       -0.4609127550
 C         -3.5188963133       -0.9394507792        0.1326276428
 C         -4.2939300775        0.2341636995       -0.2806910041
 C         -3.7790342439        1.0859734072       -1.1855339911
 C         -4.4496618843        2.3228211061       -1.7192716374
 C         -4.2787465275        3.5580552743       -0.8243787593
 C         -5.0910260423        3.5398572641        0.4712175202
 H         -5.0483867868        4.5475387197        0.8892188798
 H         -6.1350953141        3.3264966916        0.2403505664
 C         -4.5812351692        2.5468321406        1.5251405635
 H         -3.5581411615        2.2494015393        1.2815884221
 H         -4.5466620376        3.0373865670        2.5005470511
 C         -5.4387251889        1.2907108604        1.6803996720
 H         -4.9652334444        0.6437342080        2.4230282566
 H         -6.4275071716        1.5660808514        2.0536188864
 C         -5.6122918045        0.4804075269        0.3891147968
 H         -6.2932122931        0.9935487581       -0.2892743630
 H         -6.0395988104       -0.4911351100        0.6484240087
 H         -3.2177723950        3.6731976858       -0.5892543764
 H         -4.5856812254        4.4285810630       -1.4088074625
 H         -3.9889229346        2.5321891995       -2.6870522198
 H         -5.5110847286        2.1270098252       -1.8736366988
 O         -2.5564416392        0.9005744349       -1.7500547981
 C         -1.7439108910       -0.1675374910       -1.3875352368
 O         -0.6452107748       -0.1800354727       -1.9748247266
 O         -3.9930562119       -1.7555723075        0.9672223358
 C         -1.3868742595       -2.2604358080       -0.0048728352
 C         -0.3541906353       -1.7379208680        0.9648227329
 C         -0.7098025618       -1.5853888001        2.3030406000
 C          0.1869078367       -1.0673180260        3.2172915566
 C          1.4538845223       -0.6859730214        2.8131213452
 C          1.8190952315       -0.8321525124        1.4796972844
 C          0.9187879063       -1.3598399681        0.5634492673
 H          1.2128582622       -1.4379121436       -0.4700210363
 N          3.1162288971       -0.4808494939        1.0612592409
 S          3.3012236703        0.3238899198       -0.4153878920
 O          2.4063956747        1.4579845889       -0.4753701387
 O          3.2289901154       -0.6373128972       -1.4849611895
 C          4.9869184946        0.8854254776       -0.2427202606
 C          5.2384854537        2.2018286375        0.0936850814
 C          6.5522455805        2.6157067119        0.2500731416
 C          7.5868394711        1.7099336088        0.0715974027
 C          7.3191966721        0.3915422643       -0.2665751771
 C          6.0081622388       -0.0278099717       -0.4261430788
 H          5.7514963577       -1.0383996126       -0.6974257383
 H          8.1261038064       -0.3094070287       -0.4068107082
 H          8.6081133793        2.0343170712        0.1940762228
 H          6.7626696408        3.6408151826        0.5093166139
 H          4.4016156438        2.8710738224        0.2142119029
 H          3.6246948168        0.0105085407        1.7855708898
 H          2.1565480358       -0.2777347989        3.5240079145
 H         -0.1027878376       -0.9542000277        4.2511054549
 H         -1.7072402292       -1.8662480422        2.6107689960
 H         -2.0738770781       -2.9083400989        0.5577454440
 C         -0.8011705592       -3.0603668977       -1.1473253016
 C         -0.2914305994       -4.4434096482       -0.8767549726
 C         -1.5507384492       -4.2497854114       -1.6654346859
 H         -1.5321726752       -4.4458656287       -2.7270014432
 H         -2.4912805481       -4.4923602098       -1.1926052690
 H          0.5962883893       -4.7732400612       -1.3943097261
 H         -0.3783446871       -4.8170177951        0.1323995560
 H         -0.2680717008       -2.4585329955       -1.8727196732
