  62
        -98.94246189
 C         -1.9740301400       -1.0608234793       -0.1883950008
 C         -1.1176443702       -1.5081404101       -1.2246027006
 C         -0.1321712207       -2.5477478804       -0.8826740301
 C         -0.1050933109       -3.0238274898        0.3740503502
 C          0.8578521687       -4.0194711500        0.9595315506
 C          2.0575946189       -3.2973871102        1.5988676803
 C          3.2301978391       -3.0479408811        0.6522460702
 H          3.9659508493       -2.4547361512        1.2005848900
 H          3.6969651087       -4.0012471614        0.3937320307
 C          2.8621547494       -2.3039457416       -0.6333133801
 H          2.1713525398       -1.4961271212       -0.3863646405
 H          3.7684879896       -1.8400142121       -1.0279799603
 C          2.2560072591       -3.2151065018       -1.7109798697
 H          2.4183403386       -4.2552475417       -1.4288826792
 H          2.7886634892       -3.0619798725       -2.6516291898
 C          0.7669308292       -2.9878732713       -2.0064059998
 H          0.6625204795       -2.2060754416       -2.7648655902
 H          0.3496417788       -3.9018646813       -2.4429104494
 H          1.7080230194       -2.3405641598        1.9985556699
 H          2.4186093687       -3.8918112099        2.4411522506
 H          0.3144318584       -4.5537524694        1.7417829609
 H          1.1831126784       -4.7335442304        0.2082232810
 O         -0.9693504607       -2.5975893690        1.3326809399
 C         -1.8879385403       -1.5854921287        1.1026800994
 O         -2.5517539802       -1.2767697779        2.1115131193
 H         -0.9425493893        0.6839080310        1.2808154184
 C         -1.2131528489        1.5342525008        0.6752772280
 C         -2.2159558190        1.4235404808       -0.2740974420
 C         -2.5562928985        2.5541808606       -1.0101958625
 C         -1.8957684779        3.7518865504       -0.8064784631
 C         -0.8546337379        3.8394462804        0.1020983469
 C         -0.5067608584        2.7168999506        0.8421437075
 N          0.5703617616        2.7352221605        1.7483477375
 S          1.7514240010        1.5541565000        1.5939675781
 O          1.2158697105        0.2561948503        1.9122562987
 O          2.8374530512        2.0195700799        2.4292172879
 C          2.2412894511        1.6248728889       -0.1189278320
 C          3.3425206015        2.3819144683       -0.4694419923
 C          3.6956132315        2.4737234075       -1.8059854723
 C          2.9398680213        1.8192187974       -2.7677357820
 C          1.8348062009        1.0676271981       -2.4008414717
 C          1.4814243109        0.9670399288       -1.0648338517
 H          0.6270504906        0.3847875893       -0.7579965014
 H          1.2332036107        0.5542318180       -3.1345790415
 H          3.2129387213        1.8926015768       -3.8085376221
 H          4.5562958418        3.0556450670       -2.0938669226
 H          3.9038807316        2.8686762184        0.3116429675
 H          1.0069570219        3.6407489704        1.8514098571
 H         -0.3145895475        4.7643126602        0.2354348165
 H         -2.1740345876        4.6218950403       -1.3809658835
 H         -3.3356619385        2.4871675506       -1.7533412825
 C         -2.8970542195        0.0946004410       -0.5286093714
 H         -3.0697848795        0.0228450105       -1.6124183513
 C         -4.2403868496        0.0466833819        0.1719569086
 C         -5.4606994793        0.5825597421       -0.5127894917
 C         -5.2952875700       -0.8947437879       -0.3242053110
 H         -5.9109454902       -1.4028228473        0.4022969693
 H         -5.0579144802       -1.4958826784       -1.1899721407
 H         -6.1974119591        1.0980359827        0.0837014981
 H         -5.3512888791        0.9730585516       -1.5128613018
 H         -4.1647405395        0.1795372824        1.2437434886
 O         -1.1661453200       -1.0401460006       -2.3959283508
