  62
        -98.93753845
 C          2.2708899504        0.6548122300       -0.2013641499
 C          3.5695153704        1.1597039599       -0.4687029202
 C          4.6751406704        0.5354374002        0.2687346399
 C          4.4015509005       -0.4267189294        1.1681755203
 C          5.4330269106       -1.1931388391        1.9432948406
 C          5.8567952905       -2.4655657594        1.1959911911
 C          6.2200257004       -2.2307946700       -0.2703705291
 H          6.5307436203       -3.1918729802       -0.6858365287
 H          5.3242186003       -1.9219579702       -0.8144198491
 C          7.3305395704       -1.1943662501       -0.4921474796
 H          8.0358660803       -1.5890404704       -1.2264200195
 H          7.8818069404       -1.0383301898        0.4357650303
 C          6.8419834903        0.1542734397       -1.0237654501
 H          7.7140356203        0.7290074395       -1.3465203804
 H          6.2120521503       -0.0045396807       -1.9028460600
 C          6.0663116704        1.0221949701       -0.0250190104
 H          6.6410999905        1.1243677204        0.8975641396
 H          5.9475054604        2.0147972099       -0.4691839007
 H          5.0310277005       -3.1800237094        1.2335091814
 H          6.7093111905       -2.9040240492        1.7178052612
 H          6.2980182606       -0.5554504691        2.1152441203
 H          5.0015745706       -1.4739885688        2.9054524207
 O          3.1394709805       -0.8425266993        1.4437240906
 C          2.0409587205       -0.3188028896        0.7713630905
 O          0.9520023805       -0.7958285494        1.1431039807
 H         -1.5088054796        0.3647703398       -0.9930936395
 C         -1.2995597396        1.0652231801       -0.2034279598
 C         -0.0283470396        1.5946881901       -0.0486823701
 C          0.2039654205        2.4814935405        0.9998596595
 C         -0.8054647894        2.8097939809        1.8824968994
 C         -2.0698479594        2.2681247709        1.7330698097
 C         -2.3177620595        1.3945649204        0.6808192701
 N         -3.6161191295        0.8905536104        0.4834926904
 S         -3.8976661696       -0.6364139799       -0.1711653990
 O         -3.3428211095       -1.6723138396        0.6715324614
 O         -3.4923179097       -0.6425122804       -1.5538078990
 C         -5.6794820996       -0.6595433198       -0.0757623588
 C         -6.3952991997        0.0721595798       -1.0045574191
 C         -7.7785734196        0.0852577599       -0.9259278290
 C         -8.4205355896       -0.6298027697        0.0744483114
 C         -7.6894734295       -1.3616598094        0.9977285916
 C         -6.3051156195       -1.3774285194        0.9253422315
 H         -5.6957557995       -1.9376096092        1.6164313717
 H         -8.1910453095       -1.9192826491        1.7722289219
 H         -9.4974509596       -0.6187817997        0.1331449714
 H         -8.3505245697        0.6510596196       -1.6435179491
 H         -5.8537731497        0.6047184595       -1.7686626293
 H         -4.2061771495        1.0298256707        1.2930873804
 H         -2.8582172994        2.5197421111        2.4263156397
 H         -0.6073716093        3.4892892512        2.6980056391
 H          1.1953086505        2.8976735006        1.1209292093
 C          1.1140155804        1.2603833997       -0.9745248001
 H          1.5170944503        2.2099239296       -1.3670119105
 C          0.6853278303        0.4413903093       -2.1828857197
 C          1.6405008202       -0.4755092410       -2.8848167994
 C          0.4882609403       -1.0422537307       -2.1134420091
 H         -0.3413508898       -1.4733044209       -2.6558008789
 H          0.6828532903       -1.5283819603       -1.1698133189
 H          1.6116468601       -0.5191427815       -3.9631192194
 H          2.6320013102       -0.5803765009       -2.4683758695
 H         -0.0057197198        0.9876896790       -2.8183155699
 O          3.7910404403        2.0944876996       -1.2836946806
