  62
        -98.94259281
 C         -1.6567167007       -0.8250356085       -0.6928212596
 C         -1.4950534706       -1.5717434088        0.4963516102
 C         -0.4974734212       -2.6591004293        0.4597346896
 C          0.2188494783       -2.8506591295       -0.6610428407
 C          1.2951080376       -3.8720186000       -0.9153921514
 C          2.6887068281       -3.3219894708       -0.5683400218
 C          3.1216980985       -3.5286652213        0.8814848980
 H          3.3079673380       -4.5914961214        1.0529737577
 H          4.0690941588       -3.0012508018        1.0165116178
 C          2.1322745492       -3.0281940210        1.9364992685
 H          1.7566523496       -2.0401638608        1.6602896289
 H          2.6805575196       -2.9026400415        2.8729800283
 C          0.9620438787       -3.9947616805        2.1717761687
 H          1.1785639681       -4.9479430205        1.6893287084
 H          0.8747789790       -4.2019694707        3.2408745087
 C         -0.4074495212       -3.4801738497        1.7169343894
 H         -1.0929617416       -4.3305088593        1.6216162194
 H         -0.8243799005       -2.8333307396        2.4960885497
 H          2.7023856185       -2.2540507507       -0.7991846215
 H          3.4261015976       -3.8045376610       -1.2134593622
 H          1.0905563274       -4.7894692300       -0.3715923415
 H          1.2636535371       -4.0866984797       -1.9859593214
 O          0.0689750182       -2.0676182591       -1.7676426705
 C         -0.8632450112       -1.0462470787       -1.8158102199
 O         -0.8870452913       -0.4186364484       -2.8938119698
 H         -0.2715773794        1.3073001607       -0.2631763796
 C         -0.9998420890        1.7218309309        0.4181892807
 C         -2.3277939392        1.3288811916        0.3087670212
 C         -3.2588851286        1.8883441719        1.1732602516
 C         -2.8547811778        2.7881701615        2.1449309417
 C         -1.5231549475        3.1325505908        2.2857602712
 C         -0.5857071481        2.5894592805        1.4138132108
 N          0.7752446621        2.9146020498        1.5114699503
 S          1.9331132613        1.7510419792        1.1779843196
 O          1.4779625008        0.4199703894        1.4985791995
 O          3.1100884118        2.2102633785        1.8870881393
 C          2.2241968908        1.9123012595       -0.5695048204
 C          2.1116284699        0.8020694597       -1.3803637606
 C          2.3463163794        0.9297240299       -2.7394263707
 C          2.6937997499        2.1662993098       -3.2604748406
 C          2.8116286507        3.2730870496       -2.4325311904
 C          2.5754490612        3.1491328894       -1.0729993003
 H          2.6586805019        3.9838045392       -0.3972613902
 H          3.0831597711        4.2316200395       -2.8446360303
 H          2.8718047295        2.2648670500       -4.3196606206
 H          2.2372068287        0.0682255501       -3.3788871809
 H          1.8239241296       -0.1385400902       -0.9354634507
 H          1.0243377727        3.4776924995        2.3114978604
 H         -1.2071336769        3.8101015405        3.0643760913
 H         -3.5860155073        3.2121280417        2.8165047120
 H         -4.2972772588        1.6102549525        1.0974990020
 C         -2.6672708601        0.3073798320       -0.7495039389
 H         -2.5411888303        0.7784076022       -1.7356353489
 C         -4.0766568604       -0.2353570373       -0.6416029185
 C         -5.2176672203        0.4884001435       -1.2893398079
 C         -4.7270134311       -0.8049612867       -1.8652545584
 H         -5.3420735516       -1.6859580164       -1.7595037284
 H         -4.1609859415       -0.7759007267       -2.7850902786
 H         -6.1747631001        0.4939518639       -0.7899231376
 H         -4.9930733000        1.3979325335       -1.8254830878
 H         -4.2558418603       -0.7398696274        0.3009174814
 O         -2.1638699901       -1.3543365387        1.5413256305
