  62
        -98.94418558
 C          2.6334873272       -1.0979952680       -0.1931660376
 C          2.7284236207       -0.2916370605        0.9669917436
 C          3.5486370918        0.9215378518        0.8357282293
 C          4.1517668258        1.1873547908       -0.3373352552
 C          4.9679261146        2.4140691413       -0.6233437364
 C          4.0965059780        3.5381195575       -1.2013606634
 C          2.8187469435        3.8007729842       -0.4039692788
 H          2.2980361109        4.6299826442       -0.8880781962
 H          2.1668482377        2.9267595588       -0.4767068533
 C          3.0513437339        4.1356451258        1.0760639603
 H          2.4227388911        4.9871589793        1.3446148648
 H          4.0881569675        4.4376342480        1.2280471899
 C          2.7059535089        3.0030117765        2.0448427992
 H          1.6991682645        2.6330200387        1.8339323675
 H          2.6979052995        3.4135906835        3.0578672624
 C          3.6674291338        1.8077943838        2.0435724998
 H          4.6936852553        2.1599173032        2.1650036892
 H          3.4144962632        1.1781778402        2.9015253232
 H          4.6937297359        4.4505886191       -1.2455486204
 H          3.8139965018        3.2677027443       -2.2217086558
 H          5.4470506143        2.7472458686        0.2950710616
 H          5.7382487645        2.1530283815       -1.3509004828
 O          4.0413098370        0.3844638466       -1.4276669758
 C          3.2696637888       -0.7660737730       -1.3879970651
 O          3.2258986820       -1.3948636843       -2.4661624254
 H          0.3355341629       -0.3418209500       -1.0958471580
 C         -0.2375429670       -0.9408113132       -0.3970542082
 C          0.3666446816       -2.0391541043        0.2027020404
 C         -0.3871415826       -2.8093108603        1.0784630305
 C         -1.6996659289       -2.4701573264        1.3589801225
 C         -2.2883603395       -1.3632723359        0.7766451314
 C         -1.5489460226       -0.5936222584       -0.1121605872
 N         -2.1355061220        0.5405207486       -0.7026973190
 S         -3.6141910640        0.3481152876       -1.4768958743
 O         -3.7641725505       -0.9886442550       -2.0041476674
 O         -3.6805696626        1.4285933735       -2.4367850680
 C         -4.8125248014        0.6375975311       -0.1927702728
 C         -5.7889169798       -0.3052526999        0.0625245562
 C         -6.7181882525       -0.0537503628        1.0600518796
 C         -6.6551129091        1.1297160311        1.7795490126
 C         -5.6693547872        2.0673220619        1.5089897862
 C         -4.7382153390        1.8229123174        0.5122954162
 H         -3.9583794975        2.5254442706        0.2695370529
 H         -5.6229021602        2.9861400828        2.0710890601
 H         -7.3782867271        1.3227797520        2.5561075158
 H         -7.4852147278       -0.7811751992        1.2717981919
 H         -5.7942665950       -1.2136474882       -0.5184538869
 H         -1.5010248079        1.0658759578       -1.2866517873
 H         -3.3069661882       -1.0911588962        0.9997013357
 H         -2.2710158439       -3.0747893787        2.0465366310
 H          0.0545273292       -3.6742021165        1.5452933076
 C          1.7960749630       -2.3629266867       -0.1623423547
 H          1.8003713212       -2.7570912918       -1.1899349852
 C          2.4357082463       -3.3863785263        0.7536712363
 C          2.2892051412       -4.8511433476        0.4744212137
 C          3.6060328180       -4.1730984961        0.2477592019
 H          4.4199940877       -4.3816251734        0.9256539156
 H          3.9217798356       -3.9907610141       -0.7695718491
 H          1.7142037639       -5.1408339721       -0.3922838367
 H          2.2023506694       -5.5296073426        1.3096700043
 H          2.4615447054       -3.0591500742        1.7866093231
 O          2.1574672890       -0.5669722021        2.0533453750
