  62
        -98.93895694
 C         -1.9282341998        0.6122376529        0.5495138460
 C         -2.8097834106        0.9972812575       -0.4945897198
 C         -3.8985605583        0.0674469172       -0.8158445309
 C         -3.9838747129       -1.0935879285       -0.1421815678
 C         -5.0642755528       -2.1182516685       -0.3311227253
 C         -6.2433822153       -1.8648772371        0.6186569309
 C         -6.7406986410       -0.4193027896        0.6139354760
 H         -7.5913533309       -0.3660923148        1.2968327033
 H         -5.9598468162        0.2264953830        1.0220027953
 C         -7.1594165075        0.1037004587       -0.7672427186
 H         -7.3265134356       -0.7339569459       -1.4452547083
 H         -8.1084660952        0.6345934060       -0.6675168997
 C         -6.1673058842        1.0794386586       -1.4028424524
 H         -6.6553930762        1.5499646762       -2.2604470863
 H         -5.9241865356        1.8709586099       -0.6896620202
 C         -4.8550227672        0.4642159676       -1.9050923931
 H         -5.0723285360       -0.3863962129       -2.5544923080
 H         -4.3354503082        1.2243071897       -2.4957756636
 H         -5.9287657620       -2.1157509066        1.6343952332
 H         -7.0599252597       -2.5339444521        0.3410141122
 H         -5.4041753229       -2.0924223188       -1.3647812760
 H         -4.6441384268       -3.1033383217       -0.1206552919
 O         -3.1091678376       -1.4445560990        0.8321541749
 C         -2.0608900569       -0.6079185135        1.2137448986
 O         -1.3685240267       -1.0770997148        2.1336208148
 H          0.4581834577       -0.7231648871        0.1485388172
 C          0.8509232472        0.1396508277       -0.3690220482
 C          0.3247978795        1.4013259986       -0.1237609176
 C          0.8460473712        2.4893584270       -0.8156383699
 C          1.8649360643        2.3222897635       -1.7360283248
 C          2.3983341642        1.0670896926       -1.9647431733
 C          1.8887021408       -0.0265609928       -1.2746267846
 N          2.4315788048       -1.3195893250       -1.4596783378
 S          3.3712524736       -1.8794484271       -0.1886537921
 O          3.9130693787       -3.1443212931       -0.6329319220
 O          2.5927063439       -1.8890727574        1.0203605610
 C          4.6824233509       -0.6732852811       -0.0667277847
 C          5.8685944962       -0.9002983889       -0.7372147498
 C          6.8547450929        0.0726403302       -0.7037960546
 C          6.6335628321        1.2553082396       -0.0142555905
 C          5.4361693619        1.4695137619        0.6512374283
 C          4.4478516223        0.4980160645        0.6261348897
 H          3.5076765291        0.6263784167        1.1380568360
 H          5.2643956184        2.3880615470        1.1887144418
 H          7.3994368223        2.0143861690        0.0072065283
 H          7.7883193865       -0.0930366880       -1.2169036426
 H          5.9969094427       -1.8359823094       -1.2572266010
 H          2.9579408821       -1.4130818124       -2.3184417289
 H          3.1975872259        0.9289482031       -2.6775668489
 H          2.2502941790        3.1746130296       -2.2736788524
 H          0.4282311681        3.4697780260       -0.6416100141
 C         -0.8075456901        1.5912370522        0.8543410764
 H         -1.2392664838        2.5854697728        0.6518822122
 C         -0.3449892669        1.5998007893        2.3021873478
 C          0.8519819755        0.8545365542        2.8013637459
 C          0.8990348159        2.3470212874        2.6867710017
 H          0.8907528921        2.9330826102        3.5931832295
 H          1.4888610432        2.7715340176        1.8880019158
 H          0.7813186200        0.4076924527        3.7816669359
 H          1.4094579616        0.2439135681        2.1082037970
 H         -1.1847807490        1.6601677041        2.9875562584
 O         -2.6897954696        2.0825649930       -1.1242348479
