  62
        -98.93850158
 C         -1.4734716235       -1.5108959915        0.3054320297
 C         -1.5148256922       -0.4478060481       -0.6279354828
 C         -2.4888791956        0.6215564927       -0.3465722855
 C         -3.2338006411        0.5602223688        0.7716634151
 C         -4.3169236975        1.5284058372        1.1534297902
 C         -5.5973903773        1.2224195947        0.3499540833
 C         -6.0064354655        2.3217049429       -0.6309724670
 H         -6.7769316441        1.9060785696       -1.2839462827
 H         -6.4577826316        3.1450248483       -0.0733369465
 C         -4.8822791748        2.9034762170       -1.4940811974
 H         -4.3144791519        3.6329532556       -0.9145692135
 H         -5.3597142179        3.4565525928       -2.3058003297
 C         -3.9040719813        1.8886489940       -2.1001420814
 H         -4.3733314711        0.9085922843       -2.1897751239
 H         -3.6589657849        2.2169010846       -3.1123875368
 C         -2.5725012950        1.7504156384       -1.3376572343
 H         -1.7753421208        1.5521280592       -2.0603685677
 H         -2.3393037217        2.6986298712       -0.8450445291
 H         -5.4460337770        0.2869798780       -0.1929762648
 H         -6.4271876835        1.0536712610        1.0378599722
 H         -3.9852951771        2.5479624962        0.9702764523
 H         -4.5012126265        1.4059296013        2.2207980565
 O         -3.1377927892       -0.4581327368        1.6641619979
 C         -2.2700643076       -1.5144216421        1.4548794198
 O         -2.2970812557       -2.3838083368        2.3470902499
 O         -0.7882988473       -0.3768048453       -1.6547524214
 C         -0.5272734181       -2.6928937262        0.1440447104
 C          0.8754616721       -2.2039009879        0.4078661501
 C          1.3774762447       -2.2046778110        1.7058920746
 C          2.6246942906       -1.6741606232        1.9816771925
 C          3.3835171850       -1.1022560953        0.9750360307
 C          2.8799936560       -1.0805046690       -0.3185618768
 C          1.6499021900       -1.6560170445       -0.6027126238
 H          1.2698350887       -1.6223374747       -1.6110176765
 N          3.6013231818       -0.4190383699       -1.3307994269
 S          4.1077147940        1.1330650126       -0.9508227267
 O          4.0582200017        1.8756828971       -2.1913234162
 O          5.4046109572        1.0661602378       -0.3217816782
 C          2.9215013193        1.7754556145        0.2235518679
 C          1.5727249980        1.7114695732       -0.0664544819
 C          0.6665677938        2.1864131890        0.8679275090
 C          1.1168217516        2.7260351448        2.0624631502
 C          2.4744821399        2.7950583436        2.3328081692
 C          3.3856159920        2.3108612762        1.4084383582
 H          4.4489494219        2.3288277965        1.5846496991
 H          2.8237146846        3.2156981128        3.2619551315
 H          0.4031836123        3.0898100981        2.7849426290
 H         -0.3894312811        2.1144315702        0.6591365483
 H          1.2273042952        1.2824084477       -0.9940661691
 H          3.1230327842       -0.4227786358       -2.2210030588
 H          4.3471171627       -0.6604497549        1.1726650907
 H          3.0045375945       -1.6915511654        2.9916715461
 H          0.7683605775       -2.6120831602        2.5004254147
 H         -0.7959038708       -3.4009516500        0.9383963138
 C         -0.6887064710       -3.3821688150       -1.1951071552
 C         -0.0736407491       -4.7335972847       -1.3955788230
 C         -1.5622338175       -4.5950293820       -1.2934837254
 H         -2.1559284892       -4.7312942599       -2.1851011485
 H         -2.0469036671       -4.9378738792       -0.3908923946
 H          0.3570087752       -4.9682819904       -2.3569904382
 H          0.4536050881       -5.1687533936       -0.5600329935
 H         -0.6983157596       -2.7019664906       -2.0369700885
