  62
        -98.94465045
 C         -2.0105681820       -0.7700430127        0.5394576747
 C         -1.9520503213       -0.0607397888       -0.6842963405
 C         -2.0112329040        1.4028814220       -0.5794150033
 C         -2.0581981880        1.9746113914        0.6372612766
 C         -2.1506561852        3.4516802902        0.8882595472
 C         -3.6122338264        3.9127007627        0.9802560155
 C         -4.4891879804        3.4153699467       -0.1687584582
 H         -4.5712757745        2.3278777625       -0.1073614630
 H         -5.4899955685        3.8239885868       -0.0140650478
 C         -3.9864272916        3.8065090740       -1.5653022712
 H         -3.2732930767        4.6275411808       -1.4853092957
 H         -4.8325388540        4.1662024528       -2.1544096064
 C         -3.3501241593        2.6601910083       -2.3536165914
 H         -4.0239185374        1.7998737948       -2.3575816275
 H         -3.2278879856        2.9861719324       -3.3898580817
 C         -1.9761839489        2.1909520199       -1.8580773986
 H         -1.5592313228        1.5142462760       -2.6098626825
 H         -1.3025414991        3.0451675115       -1.7616394691
 H         -4.0322356985        3.5416430653        1.9179322460
 H         -3.6282241507        5.0036854516        1.0080094325
 H         -1.6385259948        3.9801470111        0.0863051206
 H         -1.6468663319        3.6697725188        1.8317296369
 O         -2.0772156301        1.2612071606        1.7934924742
 C         -2.0486920547       -0.1233615022        1.7728687580
 O         -2.0666565472       -0.6565528000        2.9029196162
 O         -1.8610411784       -0.6226576523       -1.8077428552
 C         -1.9079635421       -2.2850631743        0.5349912622
 C         -0.6111073125       -2.6839007990       -0.1284897012
 C         -0.5036629795       -3.7083690311       -1.0596077503
 C          0.7143922096       -3.9823286294       -1.6582928044
 C          1.8391630032       -3.2381864502       -1.3548361118
 C          1.7454624472       -2.2246957290       -0.4067888468
 C          0.5333519892       -1.9739531579        0.2120955538
 H          0.4728727040       -1.1839131405        0.9479866795
 N          2.8690110578       -1.4576517064       -0.0510551034
 S          2.6256673063        0.1586539433        0.3761430672
 O          2.2678758829        0.2195938472        1.7725867439
 O          1.7209875556        0.8002234982       -0.5505874923
 C          4.2810784195        0.7868723703        0.1581499793
 C          4.6139069915        1.4231280952       -1.0227794441
 C          5.9128343347        1.8742358947       -1.1983662945
 C          6.8523824669        1.6792034199       -0.1971552318
 C          6.5032613832        1.0396673383        0.9831764386
 C          5.2060600828        0.5873085975        1.1655957394
 H          4.8842420348        0.0934042538        2.0676205436
 H          7.2353205179        0.8922253766        1.7606321021
 H          7.8624478076        2.0304847623       -0.3365890577
 H          6.1857462924        2.3749062588       -2.1132904785
 H          3.8467022656        1.5583609761       -1.7684534607
 H          3.6338963007       -1.5569975139       -0.7048980302
 H          2.7808056730       -3.4355975440       -1.8440536945
 H          0.7834292037       -4.7754337783       -2.3873533355
 H         -1.3758298830       -4.2815493491       -1.3284428321
 H         -1.8636051505       -2.5915901434        1.5909566022
 C         -3.1327158795       -2.9032200759       -0.1060699436
 C         -3.6074722348       -4.2587457855        0.3211980259
 C         -4.3835761122       -3.0367203807        0.7076527463
 H         -5.3330881787       -2.8524951682        0.2280497524
 H         -4.3414554818       -2.7042304595        1.7349701117
 H         -4.0293048884       -4.9158410142       -0.4242223119
 H         -3.0457484922       -4.7649213138        1.0916659569
 H         -3.2394890701       -2.6242501278       -1.1480209716
