  62
        -98.94565676
 C         -2.4936638794       -1.1567387102       -0.0204853107
 C         -3.1143592592       -0.2886275999        0.9089881191
 C         -3.6698540190        0.9514992201        0.3575825988
 C         -3.5653557390        1.2005255097       -0.9606990013
 C         -4.0904697288        2.4158897396       -1.6754931216
 C         -3.1409882186        3.6210755495       -1.6280070819
 C         -3.0472993084        4.3207142898       -0.2714186121
 H         -2.5254392982        5.2658275997       -0.4334877124
 H         -4.0504168383        4.5577013301        0.0846659179
 C         -2.2939454485        3.5217618399        0.8016381681
 H         -1.5878342884        4.1779689299        1.3166040379
 H         -1.7003795487        2.7381517797        0.3221991283
 C         -3.1915036886        2.8914715804        1.8674159683
 H         -3.6857739384        3.6793574106        2.4398764481
 H         -2.5594394587        2.3230707904        2.5549600884
 C         -4.2629993188        1.9429351305        1.3129496085
 H         -4.6916949089        1.3849970608        2.1489849187
 H         -5.0548556987        2.5128632305        0.8281649384
 H         -3.4967290785        4.3465453694       -2.3632568221
 H         -2.1447285786        3.2948338592       -1.9379575619
 H         -5.0590737987        2.6968245299       -1.2613209716
 H         -4.2271987189        2.1271655394       -2.7197164615
 O         -2.9621798992        0.3402999694       -1.8225205611
 C         -2.3793726494       -0.8370874906       -1.3739612908
 O         -1.8155881496       -1.4989538809       -2.2650059806
 O         -3.1926148393       -0.5348331395        2.1436780292
 C         -1.8402467197       -2.4294880402        0.4919325196
 C         -0.3462474697       -2.2934283806        0.3265872995
 C          0.4436569102       -3.1856320609       -0.3843776903
 C          1.7999464302       -2.9502527312       -0.5372622204
 C          2.3953510604       -1.8309623112        0.0144897993
 C          1.6149496906       -0.9368794508        0.7365729791
 C          0.2608732506       -1.1777131305        0.8923580992
 H         -0.3473852493       -0.4752345803        1.4501283591
 N          2.2134691909        0.2128405092        1.2979817588
 S          2.8376632810        1.3127678688        0.1845144485
 O          2.8438383813        2.5873327790        0.8699143882
 O          2.1188781310        1.2612530186       -1.0689103415
 C          4.5155109009        0.7640506284       -0.0407564614
 C          5.3472282510        0.7527434385        1.0621415486
 C          6.6554359909        0.3227161582        0.9084345986
 C          7.1072122308       -0.0841383022       -0.3384099813
 C          6.2603588407       -0.0635159023       -1.4361523912
 C          4.9498069408        0.3644646480       -1.2891551313
 H          4.2521881808        0.3910102379       -2.1111678213
 H          6.6131026506       -0.3800777826       -2.4045753212
 H          8.1255422307       -0.4195287224       -0.4557215712
 H          7.3170551209        0.3054261783        1.7593948586
 H          4.9554940411        1.0812752589        2.0102468285
 H          1.5965841910        0.7020818395        1.9323120887
 H          3.4492809705       -1.6422669514       -0.1092671508
 H          2.4009473000       -3.6479888315       -1.1001083202
 H         -0.0046157100       -4.0566604209       -0.8328088900
 H         -2.0636510096       -2.4578368299        1.5687008796
 C         -2.4273633999       -3.6598715903       -0.1626033801
 C         -2.3477993002       -4.9854103601        0.5322883103
 C         -3.6620867900       -4.2743555499        0.4230977301
 H         -4.4095933601       -4.6673268299       -0.2494383797
 H         -4.0727509999       -3.8159679096        1.3109605200
 H         -2.1943499004       -5.8716782003       -0.0643102995
 H         -1.8663455401       -5.0142015500        1.4979560503
 H         -2.3444419300       -3.6396011006       -1.2429278901
