  62
        -98.93936321
 C          2.1171176076        0.4014155662       -1.0508079750
 C          2.9314892735       -0.7505299178       -0.9142319835
 C          4.3357557592       -0.5012376369       -0.5467320373
 C          4.7653398190        0.7604800239       -0.3714788898
 C          6.1483746908        1.1456992277        0.0653383883
 C          6.2351213576        1.2603755279        1.5937928479
 C          5.6500685267        0.0597155488        2.3376312170
 H          5.7940423694        0.2378238593        3.4055556203
 H          4.5725534611        0.0223238349        2.1611680892
 C          6.2741728761       -1.2897007728        1.9552612421
 H          7.2328538776       -1.1274144970        1.4612913551
 H          6.4719526803       -1.8548442227        2.8685498190
 C          5.3901617593       -2.1695711554        1.0695481709
 H          5.8272494966       -3.1712167768        1.0417322886
 H          4.3972257984       -2.2581216484        1.5171505469
 C          5.2244316802       -1.7023387330       -0.3820393186
 H          6.2055449412       -1.5195570890       -0.8246114485
 H          4.7408961624       -2.5111666086       -0.9375789091
 H          5.6897826010        2.1545377007        1.9049357536
 H          7.2830486647        1.3879000952        1.8714007839
 H          6.8580801284        0.4035183034       -0.2949800711
 H          6.3918638099        2.1130859499       -0.3772870520
 O          3.9592579896        1.8423574930       -0.5269787896
 C          2.6241064904        1.6892636063       -0.8559988924
 O          1.9968779571        2.7637546727       -0.9560281832
 H         -1.5558295283        1.7592324923       -0.7103992321
 C         -1.3101775749        0.9980271596        0.0144641628
 C         -0.2102747849        0.1755455321       -0.1795010238
 C          0.0793251084       -0.7917967169        0.7790593992
 C         -0.7086500217       -0.9207922402        1.9075055640
 C         -1.8128609202       -0.1060760298        2.0912510486
 C         -2.1165026353        0.8551842119        1.1359459899
 N         -3.2477412111        1.6872268484        1.2727433490
 S         -4.4550091488        1.5025514114        0.1251521087
 O         -3.9328348195        1.8076845437       -1.1808265277
 O         -5.5561408638        2.3135228821        0.5920451954
 C         -4.8847765424       -0.2259080362        0.2326004080
 C         -5.9119351560       -0.6105834565        1.0722244433
 C         -6.1902676832       -1.9603534292        1.2156326728
 C         -5.4327312139       -2.8979835932        0.5297967599
 C         -4.4029955814       -2.4958891658       -0.3070664265
 C         -4.1233445853       -1.1470274623       -0.4585870428
 H         -3.3339423325       -0.7987590627       -1.1038638748
 H         -3.8128840165       -3.2230543773       -0.8416296726
 H         -5.6461298654       -3.9487743268        0.6461062641
 H         -6.9925804859       -2.2765031007        1.8626805378
 H         -6.4770258290        0.1525972267        1.5826931503
 H         -3.6595417014        1.6605089093        2.1956055907
 H         -2.4327697604       -0.2106057669        2.9690676118
 H         -0.4682931553       -1.6705483463        2.6457830138
 H          0.9232814966       -1.4457601467        0.6225051351
 C          0.6427294650        0.3365133022       -1.4125878427
 H          0.4084850880        1.3228315727       -1.8440351343
 C          0.3324868282       -0.7099419695       -2.4768508005
 C         -0.5639762682       -1.8835030473       -2.2329751452
 C         -1.0357817279       -0.7502582077       -3.0909447720
 H         -1.1200005750       -0.9049738061       -4.1561621181
 H         -1.7790081472       -0.0743687325       -2.6908321391
 H         -0.3024718332       -2.8168300054       -2.7075654157
 H         -0.9944791478       -2.0000662484       -1.2506190643
 H          1.1698071700       -0.8732139128       -3.1463177729
 O          2.5287417837       -1.9297165097       -1.0804395888
