  62
        -98.94451937
 C         -1.9543352647       -1.3459663181        0.0846451785
 C         -2.2372628458       -0.3897269174       -0.9207430271
 C         -3.6104648304        0.1326202785       -0.9397770462
 C         -4.5134096365       -0.3026704648       -0.0435568341
 C         -5.9533462157        0.1232037664        0.0479699663
 C         -6.1707423861        1.4249672311        0.8313879603
 C         -5.7236571661        2.6988124572        0.1130897767
 H         -6.1299215152        3.5424631108        0.6745631227
 H         -6.1664935614        2.7277863671       -0.8830278523
 C         -4.2012598954        2.8652488053        0.0070388655
 H         -3.7105775568        2.2021030491        0.7235942032
 H         -3.9265311901        3.8869352973        0.2794376072
 C         -3.6298709519        2.5990995336       -1.3856764302
 H         -2.5437958924        2.7128076518       -1.3362415904
 H         -4.0135636177        3.3433760928       -2.0871797818
 C         -3.9378591354        1.2015641585       -1.9389381618
 H         -3.3138973780        1.0369519742       -2.8207730597
 H         -4.9845959917        1.1374949676       -2.2349165743
 H         -5.6528061770        1.3468079648        1.7901508946
 H         -7.2404421962        1.5064932436        1.0374975087
 H         -6.4823874541       -0.6810404373        0.5638255754
 H         -6.3704369508        0.2263277746       -0.9541772380
 O         -4.2080982188       -1.2283517212        0.9027915302
 C         -2.9328305002       -1.7557234636        0.9981008147
 O         -2.7938469607       -2.5827383158        1.9212639408
 O         -1.4078799973        0.0244710062       -1.7754664284
 C         -0.5941430822       -2.0046367900        0.2601184602
 C          0.3822063489       -1.0923223530        0.9630594465
 C          0.9236961740       -1.4386924154        2.1951528836
 C          1.8448634571       -0.6145237102        2.8187647594
 C          2.2455443394        0.5691549555        2.2257419472
 C          1.7039774447        0.9260114631        0.9977344351
 C          0.7855460086        0.0967889660        0.3721584657
 H          0.3655512743        0.3818027518       -0.5810805756
 N          2.1228764580        2.1213810610        0.3753207010
 S          3.7688465483        2.2104663338        0.0635389948
 O          4.4634528211        2.5631129062        1.2764133540
 O          3.9108641447        3.1343315535       -1.0393215209
 C          4.2090437079        0.5544457134       -0.4318176858
 C          4.9189580194       -0.2561348361        0.4299630522
 C          5.1776599505       -1.5651485393        0.0563790978
 C          4.7194786585       -2.0391396885       -1.1627548283
 C          4.0089302585       -1.2111792638       -2.0182548812
 C          3.7461195630        0.0976959750       -1.6498077647
 H          3.1981790562        0.7693788835       -2.2916048722
 H          3.6538556540       -1.5799892127       -2.9673592845
 H          4.9173730082       -3.0601662100       -1.4488777014
 H          5.7301636722       -2.2118396708        0.7186481214
 H          5.2553263385        0.1525695178        1.3685440965
 H          1.6027478118        2.3220099903       -0.4675692820
 H          2.9680539559        1.2209115568        2.6900476859
 H          2.2559967490       -0.8972084897        3.7757831658
 H          0.6094075625       -2.3574045227        2.6686639322
 H         -0.7704359643       -2.8703936563        0.9118234381
 C         -0.0031660480       -2.5011850777       -1.0465904824
 C          1.0521389372       -3.5630669220       -1.0064778853
 C         -0.3199944430       -3.8879693553       -1.5147429246
 H         -0.4556951079       -4.0555905408       -2.5726771595
 H         -0.9671517872       -4.4896501916       -0.8928580087
 H          1.8637115736       -3.5073925165       -1.7147199578
 H          1.3379581023       -3.9467394557       -0.0390507199
 H          0.0838676761       -1.7301439106       -1.8000945959
