  62
        -98.93845244
 C          1.9699122025        1.2502783518        0.7564585725
 C          1.8326518157       -0.1284146747        1.0676154435
 C          2.9876706989       -0.9857340111        0.7741829451
 C          4.1010333697       -0.4286917453        0.2646571968
 C          5.3504092811       -1.1785093924       -0.0963693228
 C          5.3354885254       -1.6194233775       -1.5661894823
 C          4.0420084959       -2.3173636136       -1.9856855037
 H          3.2211493644       -1.5971527955       -1.9478318657
 H          4.1572906514       -2.6171489683       -3.0296420930
 C          3.6790157893       -3.5446088684       -1.1378414854
 H          3.3693662831       -4.3509431826       -1.8062105561
 H          4.5579495521       -3.8941704650       -0.5951844871
 C          2.5299976529       -3.3152125030       -0.1539845457
 H          1.6924809377       -2.8546276372       -0.6846914659
 H          2.1968542285       -4.2904439566        0.2111900595
 C          2.8574695824       -2.4527744154        1.0719417395
 H          2.0247805952       -2.5399315308        1.7760054860
 H          3.7596110343       -2.8310782935        1.5569947863
 H          5.4675363743       -0.7357436484       -2.1949004701
 H          6.1831968991       -2.2859270187       -1.7358213937
 H          6.2047000431       -0.5189830615        0.0663431196
 H          5.4459150293       -2.0462833263        0.5535391136
 O          4.1987053853        0.8930091318       -0.0186459994
 C          3.1297975352        1.7654226915        0.1778013534
 O          3.3676787075        2.9282019730       -0.1937189832
 O          0.7875682868       -0.6110852025        1.5780983088
 C          0.7474945969        2.1041765442        1.0445865112
 C         -0.2890422479        1.8748508380       -0.0263083276
 C          0.0608847723        1.8788030800       -1.3723454329
 C         -0.8904695542        1.6364229499       -2.3469076096
 C         -2.2076631251        1.3891637606       -2.0003462209
 C         -2.5668813576        1.3819237051       -0.6592300179
 C         -1.6087885573        1.6237437623        0.3174160721
 H         -1.8910365626        1.5974466102        1.3611424929
 N         -3.9092967673        1.1338962917       -0.3043085419
 S         -4.5320836627       -0.3845449633       -0.6467389178
 O         -4.4182256084       -0.6271753311       -2.0614152468
 O         -5.8682883977       -0.3835659642       -0.0976902141
 C         -3.5017926153       -1.5168659305        0.2663709657
 C         -3.9172270763       -1.9359766195        1.5145982128
 C         -3.0890958383       -2.7666725928        2.2515417004
 C         -1.8637401457       -3.1546206654        1.7322880345
 C         -1.4605763021       -2.7225328507        0.4789759826
 C         -2.2836035819       -1.8920977561       -0.2636693883
 H         -2.0009531206       -1.5345413236       -1.2410613380
 H         -0.5021681012       -3.0192099259        0.0862505363
 H         -1.2137865324       -3.7944256827        2.3078278595
 H         -3.3980871516       -3.1047691451        3.2277831584
 H         -4.8802852490       -1.6132039979        1.8768097468
 H         -4.1129336180        1.3573923878        0.6603260631
 H         -2.9564046978        1.1810974126       -2.7470300737
 H         -0.6047303652        1.6412217178       -3.3882089605
 H          1.0895159240        2.0705374473       -1.6444714426
 H          0.3329533200        1.7034004243        1.9842795820
 C          1.0417790854        3.5771817271        1.2752432583
 C          0.7456457181        4.6424018162        0.2674766365
 C         -0.0841158733        4.5405160153        1.5101159662
 H          0.0316409954        5.2935435968        2.2746958773
 H         -1.0920701585        4.1681190028        1.4041817258
 H          1.4536888198        5.4511994294        0.1737028107
 H          0.2975182562        4.3489967989       -0.6690515646
 H          1.9357195833        3.7214117399        1.8721124813
