  62
        -98.94130706
 C          2.6827865601       -0.2998879251        0.2814371960
 C          2.2735972526       -1.0921588034       -0.8202520383
 C          1.7172689366       -2.4153264048       -0.4851861394
 C          1.6127147181       -2.7907472664        0.8008158267
 C          1.0486069932       -4.0990173302        1.2749747656
 C         -0.4546201066       -4.0019466928        1.5642115587
 C         -1.2687415370       -3.3712163617        0.4339010901
 H         -2.3200021588       -3.4170556687        0.7294167872
 H         -1.0120662160       -2.3120263029        0.3526550035
 C         -1.0947739769       -4.0437445705       -0.9345609999
 H         -0.6909442876       -5.0494174946       -0.8061200285
 H         -2.0780626938       -4.1431567262       -1.3992003173
 C         -0.2188658481       -3.2629618163       -1.9166088662
 H         -0.5489349330       -2.2210355729       -1.9482443813
 H         -0.3673236844       -3.6848809077       -2.9147895448
 C          1.2884100000       -3.2878186281       -1.6312237376
 H          1.7996061725       -2.8921896506       -2.5140716639
 H          1.6177136150       -4.3180166555       -1.4751455989
 H         -0.5963182236       -3.3941226195        2.4608523355
 H         -0.8296875981       -5.0071989816        1.7679669626
 H          1.2343086344       -4.8598275402        0.5188453908
 H          1.5672617370       -4.3786846545        2.1940438348
 O          2.0069277063       -2.0005944172        1.8330650602
 C          2.5188769006       -0.7377206161        1.5981325776
 O          2.8190198241       -0.1072944103        2.6339133382
 O          2.3744933514       -0.7476877063       -2.0258172864
 C          3.2162886889        1.1198605447        0.1560738814
 C          2.0888451216        2.0951456176        0.3902481581
 C          2.2670370028        3.2439600638        1.1524210003
 C          1.2063054218        4.0998557311        1.3919834862
 C         -0.0574299575        3.8083648999        0.9104311952
 C         -0.2455633954        2.6596610582        0.1509751531
 C          0.8306607099        1.8324451527       -0.1296000684
 H          0.6679222227        0.9513933502       -0.7322075366
 N         -1.5126224400        2.2934275908       -0.3360457359
 S         -1.8703609578        0.6376718434       -0.2302497951
 O         -1.3136747620        0.0973665249        0.9886975241
 O         -1.4817319180        0.0034247106       -1.4633314602
 C         -3.6502346820        0.6872207662       -0.1277762484
 C         -4.2564248854        0.6392188782        1.1132121668
 C         -5.6387420464        0.7114213126        1.1873114612
 C         -6.3865750623        0.8338226881        0.0257267136
 C         -5.7637973132        0.8796582864       -1.2128833086
 C         -4.3822368707        0.8061246596       -1.2941679297
 H         -3.8535139792        0.8273635593       -2.2328324947
 H         -6.3484518261        0.9711322930       -2.1139619040
 H         -7.4618811371        0.8903538786        0.0862829974
 H         -6.1252272730        0.6714334720        2.1485432844
 H         -3.6333247507        0.5345395054        1.9872342277
 H         -2.2582751336        2.8593368617        0.0470632529
 H         -0.8923702731        4.4573280392        1.1271999032
 H          1.3584383024        4.9894637034        1.9841208340
 H          3.2374690191        3.4497206568        1.5798485880
 H          3.9301294405        1.2443039346        0.9877381237
 C          3.9720926148        1.3897377276       -1.1356494903
 C          3.3864622775        2.1648532971       -2.2732911463
 C          4.4756679158        2.7694267540       -1.4424153367
 H          5.4592103648        2.8717716605       -1.8750539023
 H          4.2029072102        3.5647776229       -0.7659383182
 H          3.6112341127        1.8300417773       -3.2741212798
 H          2.3824899622        2.5448269679       -2.1605906843
 H          4.6224506591        0.5635377210       -1.4019154149
