  62
        -98.94293400
 C          1.8080458203        0.8477509996        0.3469184916
 C          3.1560716303        1.1244244993        0.6916951619
 C          4.0599555401       -0.0299749808        0.7413010516
 C          3.5749892199       -1.2654700107        0.5233875111
 C          4.3643736198       -2.5457657708        0.5582975308
 C          5.0930471499       -2.8648092705       -0.7543910693
 C          6.3108761600       -1.9892306706       -1.0524525688
 H          6.9777078199       -1.9896249809       -0.1896369487
 H          6.8480153201       -2.4583446004       -1.8792066089
 C          5.9718441603       -0.5436512404       -1.4426034284
 H          6.5570712004       -0.2557002902       -2.3188983382
 H          4.9190734803       -0.4810295201       -1.7286718885
 C          6.2519400003        0.4901268292       -0.3515249680
 H          7.3250471603        0.5303922490       -0.1522026178
 H          5.9419631805        1.4712496194       -0.7210826277
 C          5.5184363901        0.2276255089        0.9703581818
 H          5.9761830499       -0.6108467714        1.4947852716
 H          5.6043362202        1.1210032686        1.5938010722
 H          5.4252584697       -3.9039859705       -0.6982244196
 H          4.3794830900       -2.7885621301       -1.5782334893
 H          5.0847539497       -2.5100170012        1.3759971909
 H          3.6494506896       -3.3466269908        0.7584866604
 O          2.2622678099       -1.4973098304        0.2621723009
 C          1.3498314701       -0.4546227802        0.1490943511
 O          0.1925021101       -0.8305413500       -0.1111667391
 O          3.5807734104        2.2810762292        0.9527280823
 C          0.8549163905        2.0235936398        0.2414506119
 C         -0.4401417197        1.7302321397        0.9560318517
 C         -0.4034487099        1.4924910393        2.3284161016
 C         -1.5614361400        1.2294349292        3.0327119313
 C         -2.7837141399        1.2014716796        2.3835399712
 C         -2.8333617197        1.4404107701        1.0160617813
 C         -1.6662134096        1.7051288001        0.3102857115
 H         -1.7332713094        1.8591433005       -0.7533203685
 N         -4.0682889796        1.4618853205        0.3413023411
 S         -4.3451848196        0.5033069710       -1.0017856792
 O         -3.3669495295        0.7828973712       -2.0193460290
 O         -5.7246270295        0.7652151413       -1.3536652493
 C         -4.2030986799       -1.1725059292       -0.4061907898
 C         -2.9533452000       -1.6944759395       -0.1397972998
 C         -2.8683933403       -2.9776364897        0.3799057298
 C         -4.0195992804       -3.7102926296        0.6227398594
 C         -5.2670054603       -3.1686901294        0.3497990794
 C         -5.3617579101       -1.8862896192       -0.1646992502
 H         -6.3086578700       -1.4246220689       -0.3940175001
 H         -6.1620157104       -3.7397268093        0.5379159491
 H         -3.9430527106       -4.7078188398        1.0263324890
 H         -1.8930478604       -3.3870474099        0.5906089097
 H         -2.0637773399       -1.1158672596       -0.3318166395
 H         -4.8667463197        1.4000815204        0.9577872610
 H         -3.6917305200        0.9995038695        2.9315266010
 H         -1.5146989101        1.0432567188        4.0950806913
 H          0.5524164001        1.5127449190        2.8345783017
 H          1.3632198305        2.8357248295        0.7890473622
 C          0.6507718607        2.5244142303       -1.1806832280
 C          1.7238791308        2.3826274205       -2.2173136479
 C          0.4563103707        1.5937695207       -2.3382558483
 H         -0.2585058792        1.8660188911       -3.1014447183
 H          0.4851308805        0.5339293107       -2.1391300886
 H          1.8897385710        3.2024786107       -2.8999410176
 H          2.6264380007        1.8589145103       -1.9369135479
 H          0.0832448508        3.4501966804       -1.2054518877
