  62
        -98.94489968
 C          2.2085856908        0.7995102097       -0.1282160004
 C          3.0404377209        0.5187661497        0.9887462996
 C          3.8787786208       -0.6823390104        0.8982431295
 C          3.7997662506       -1.4542186404       -0.2005461105
 C          4.6324263305       -2.6764680805       -0.4546201405
 C          5.9270936905       -2.3221913306       -1.1999627106
 C          6.6969738306       -1.1554742806       -0.5810198407
 H          7.6054827906       -1.0164653207       -1.1708990208
 H          6.1043928007       -0.2435741706       -0.6836756507
 C          7.0703448707       -1.3528245306        0.8947996792
 H          7.0003258307       -2.4091918206        1.1565462993
 H          8.1104940207       -1.0519470207        1.0361755891
 C          6.2318855609       -0.5314976605        1.8759476093
 H          6.2229970309        0.5155391495        1.5630859893
 H          6.7142299709       -0.5763436805        2.8559286893
 C          4.7801570308       -0.9912509104        2.0604481294
 H          4.7580019508       -2.0586251004        2.2898969395
 H          4.3645839510       -0.4478407404        2.9139876495
 H          6.5634706804       -3.2086372306       -1.2251510607
 H          5.6723130404       -2.0572932806       -2.2287760306
 H          4.8659511706       -3.1535539605        0.4953328595
 H          4.0493277004       -3.3689188804       -1.0643268204
 O          2.9731395805       -1.1730811404       -1.2375687804
 C          2.1627907906       -0.0464688503       -1.2360318904
 O          1.4749207605        0.0638594197       -2.2718919303
 H         -0.5066115794        0.7598189599       -1.5310148001
 C         -0.8902486692        1.0344781599       -0.5597864201
 C         -0.0659327991        1.7043631499        0.3332154798
 C         -0.5647920990        2.0140279699        1.5933656298
 C         -1.8571486690        1.6658634200        1.9448255500
 C         -2.6757667891        0.9992956201        1.0507537600
 C         -2.1811841792        0.6717363300       -0.2047596700
 N         -2.9989602294       -0.0202613900       -1.1178082699
 S         -3.7244676394       -1.4372971899       -0.5794019198
 O         -2.9604455894       -2.0568341299        0.4796409301
 O         -3.9427018796       -2.2333703799       -1.7676323498
 C         -5.3005671193       -0.8868027298        0.0420774803
 C         -6.1295549494       -0.1937387797       -0.8184115096
 C         -7.3607306393        0.2420737904       -0.3556556395
 C         -7.7412270392       -0.0229328496        0.9516119905
 C         -6.8994869492       -0.7234319196        1.8018620405
 C         -5.6660703692       -1.1620111297        1.3451598604
 H         -4.9764304492       -1.7056680697        1.9712900203
 H         -7.1971551491       -0.9291159096        2.8175050905
 H         -8.6996375191        0.3182516805        1.3097930406
 H         -8.0182016893        0.7863095904       -1.0142654895
 H         -5.7966209694       -0.0127209498       -1.8267419597
 H         -2.5463487295       -0.1776460000       -2.0076377499
 H         -3.6813323191        0.7199578002        1.3197518301
 H         -2.2310403789        1.9144418001        2.9263056300
 H          0.0764386211        2.5145990399        2.3042948598
 C          1.3545239009        2.0550659198       -0.0409421803
 H          1.7834871110        2.6317841998        0.7894400196
 C          1.4098419008        2.9065569297       -1.2937596004
 C          1.0313526109        4.3535074198       -1.2041796504
 C          2.4634958209        3.9647769397       -1.4129870705
 H          2.9122697008        4.1371296396       -2.3797738505
 H          3.1498283910        4.0818908096       -0.5869369605
 H          0.7468496810        4.7354482198       -0.2355343003
 H          0.4932363909        4.7964132898       -2.0279539403
 H          1.1443925807        2.3700100597       -2.1951744803
 O          3.0832244110        1.2493266797        2.0140860795
