  62
        -98.93908944
 C          1.8977177894       -0.3482393090        0.6270979067
 C          2.9530521959       -1.2169360057        0.2664137585
 C          4.3087126187       -0.6412208215        0.2562101545
 C          4.4766761191        0.6561165337        0.5742232637
 C          5.7308342778        1.4974187859        0.6899752136
 C          7.0532790443        1.0167313329        0.0977441443
 C          7.0795952885        0.9339783662       -1.4279910688
 H          7.0404798858        1.9488342104       -1.8318197329
 H          8.0323928253        0.4929422932       -1.7290032027
 C          5.9414791071        0.1405778052       -2.0650771934
 H          4.9897337018        0.6345563178       -1.8582960219
 H          6.0855192597        0.1617901619       -3.1487896617
 C          5.8454496248       -1.3228118574       -1.6377568755
 H          6.8047639616       -1.8173787949       -1.8015473452
 H          5.1060971693       -1.8054066958       -2.2825284243
 C          5.4125410473       -1.5609599213       -0.1803548223
 H          6.2580916353       -1.4958303909        0.5000918786
 H          5.0116451632       -2.5762077706       -0.1091886799
 H          7.3386008055        0.0646967271        0.5354477242
 H          7.8113435624        1.7439181620        0.4014530578
 H          5.4763036271        2.4693949921        0.2555555517
 H          5.8747712584        1.6688894540        1.7626003439
 O          3.4244004577        1.4558619946        0.9185830414
 C          2.1200049879        0.9891610135        0.9481187914
 O          1.2766041969        1.8476053085        1.2688454889
 O          2.7728357376       -2.4279077618       -0.0331160521
 C          0.4785610147       -0.8883629316        0.6548356248
 C         -0.3729072719       -0.1131410156       -0.3188932520
 C          0.0165099129       -0.0797596317       -1.6567005903
 C         -0.7028080955        0.6455322901       -2.5849831323
 C         -1.8344713504        1.3452399766       -2.2020370194
 C         -2.2355163398        1.3150216763       -0.8726446639
 C         -1.5099593772        0.5819611953        0.0587928341
 H         -1.8347984005        0.5941105558        1.0849815063
 N         -3.3685419490        2.0328065445       -0.4573863311
 S         -4.4968932710        1.3380611413        0.5598193663
 O         -5.6526974497        2.2016171496        0.4591365925
 O         -3.9481427539        1.1578407272        1.8788416800
 C         -4.8522655709       -0.2399581009       -0.1908420112
 C         -4.1940728644       -1.3707780411        0.2474101786
 C         -4.4317067946       -2.5744153836       -0.3977750979
 C         -5.3162759714       -2.6259028987       -1.4637562382
 C         -5.9730942093       -1.4809949501       -1.8893415792
 C         -5.7369986534       -0.2744032432       -1.2514256080
 H         -6.2342816395        0.6363475911       -1.5434512010
 H         -6.6642553827       -1.5252843452       -2.7155627996
 H         -5.4964404220       -3.5647568807       -1.9632276186
 H         -3.9234888835       -3.4659094128       -0.0663376460
 H         -3.5167603922       -1.2928938180        1.0815468418
 H         -3.8241931681        2.5522113183       -1.1933817072
 H         -2.3938860399        1.9213356139       -2.9234072768
 H         -0.3834858916        0.6672487334       -3.6160000451
 H          0.9031665467       -0.6234050660       -1.9533369941
 H          0.5566904516       -1.9252574146        0.2961929342
 C         -0.0562394317       -0.9030208163        2.0702576822
 C         -1.0930234059       -1.9076554217        2.4716602654
 C          0.3127463489       -2.0395715410        2.9741735696
 H          0.5147137212       -1.8265784919        4.0132048060
 H          0.9324327999       -2.8214198652        2.5598691334
 H         -1.8627203477       -1.6036717352        3.1659820032
 H         -1.4217242720       -2.6098131422        1.7201755938
 H         -0.1042763186        0.0856575481        2.5135801403
