  62
        -98.93889605
 C         -2.6691349312       -1.0634260198        0.2914552001
 C         -2.5214258008       -0.2482142193       -0.8563619494
 C         -3.1126086903        1.0981545309       -0.7755327888
 C         -3.7608112402        1.4715702806        0.3409611214
 C         -4.4611152797        2.7782101607        0.6151562221
 C         -3.7105052492        4.0658526306        0.2404553128
 C         -2.1784842392        3.9754552400        0.3102771828
 H         -1.7985568189        4.8209751096        0.8872610432
 H         -1.8740679396        3.0664727196        0.8329379423
 C         -1.5119667691        4.0158000205       -1.0674850872
 H         -2.0001041788        4.7874302910       -1.6673905468
 H         -0.4661610490        4.3083476300       -0.9418675470
 C         -1.5139686696        2.6998101709       -1.8460933079
 H         -0.8035286699        2.0009976104       -1.3928108882
 H         -1.1445174795        2.9079820813       -2.8533605977
 C         -2.8751685399        1.9930821915       -1.9567425783
 H         -3.6808629596        2.7117100418       -2.0875396779
 H         -2.8406840501        1.3390829519       -2.8321707486
 H         -3.9969845290        4.3747289813       -0.7638690871
 H         -4.0577917689        4.8448255004        0.9208835432
 H         -5.4256574897        2.7635894414        0.1003655520
 H         -4.6664121798        2.7717430503        1.6880510720
 O         -3.8910134906        0.6470726101        1.4189261310
 C         -3.3302800011       -0.6197043801        1.4338514703
 O         -3.4823427014       -1.2381402406        2.5077994000
 O         -1.9296422209       -0.6243614389       -1.9004403396
 C         -2.0297782617       -2.4403447401        0.3245117494
 C         -0.5450994217       -2.2982481905        0.0874720796
 C          0.1702278781       -3.0714724603       -0.8163764408
 C          1.5236018882       -2.8508854208       -1.0091473506
 C          2.1914867385       -1.8647492714       -0.3070298201
 C          1.4876798788       -1.0936187716        0.6089940703
 C          0.1359924887       -1.3221801812        0.8051587501
 H         -0.4118700111       -0.7143337713        1.5168168004
 N          2.1594074591       -0.0850362422        1.3305121008
 S          2.8722128097        1.1338594680        0.4114728315
 O          2.9237362701        2.2863516275        1.2857403021
 O          2.1937246198        1.3130920989       -0.8504014584
 C          4.5257769994        0.5315050475        0.1438138813
 C          4.9859133094        0.3257012080       -1.1418268688
 C          6.2753209292       -0.1506800424       -1.3229268290
 C          7.0763232191       -0.4106846233       -0.2214473191
 C          6.5996362991       -0.1957226938        1.0633543010
 C          5.3123128793        0.2812195966        1.2513033712
 H          4.9035420593        0.4662720262        2.2306066612
 H          7.2255797890       -0.3988073045        1.9172590909
 H          8.0782690489       -0.7831258537       -0.3652435293
 H          6.6476416292       -0.3180835121       -2.3208248291
 H          4.3237518695        0.5357999187       -1.9667270787
 H          1.5859497193        0.3315476076        2.0509116110
 H          3.2424838286       -1.6833147817       -0.4624160800
 H          2.0649250880       -3.4532245706       -1.7225785709
 H         -0.3347029422       -3.8371759198       -1.3818670912
 H         -2.1811364819       -2.8235553805        1.3444484392
 C         -2.7171273921       -3.3687472093       -0.6539253511
 C         -2.7529320926       -4.8442708394       -0.3955333619
 C         -3.9991795323       -4.0263319090       -0.2436953415
 H         -4.7821432623       -4.1331425983       -0.9792715116
 H         -4.3627312323       -3.8222055594        0.7531831686
 H         -2.6838427129       -5.5170248290       -1.2369029122
 H         -2.2736365828       -5.2066089101        0.5012583080
 H         -2.6354007619       -3.0260499588       -1.6788788809
