  62
        -98.94313306
 C         -1.9900614801       -0.1021392603        0.4257011112
 C         -2.7993836003       -0.4120123198       -0.6949073289
 C         -4.0669289005        0.3264505299       -0.7873939281
 C         -4.3700871905        1.2667191293        0.1243812325
 C         -5.6183030507        2.1060530289        0.1533741833
 C         -6.8159252604        1.4139555682        0.8192358032
 C         -7.4571293003        0.2909349286        0.0026611626
 H         -8.4069493401        0.0485677880        0.4836690926
 H         -7.6842454006        0.6561401291       -0.9994311871
 C         -6.6122277200       -0.9872775612       -0.0918249284
 H         -7.2460586097       -1.8568931314        0.0959553012
 H         -5.8461495898       -0.9759008315        0.6869009314
 C         -5.9374693702       -1.2025438501       -1.4465732287
 H         -6.6987110104       -1.3494377098       -2.2159532886
 H         -5.3364578900       -2.1134443700       -1.3888769294
 C         -5.0173583106       -0.0547994196       -1.8822385782
 H         -4.4237899607       -0.3946936189       -2.7343326685
 H         -5.6094295109        0.8066186104       -2.1900695475
 H         -7.5739484306        2.1791946979        1.0018368838
 H         -6.4982868801        1.0236687077        1.7890169628
 H         -5.8855317310        2.4039463195       -0.8608966764
 H         -5.3767077708        3.0037061986        0.7267597638
 O         -3.5361707604        1.5805856088        1.1517699326
 C         -2.3472778702        0.8973133490        1.3355878019
 O         -1.6974876300        1.2655243386        2.3363365420
 O         -2.5057430902       -1.2584180892       -1.5778781094
 C         -0.6722001399       -0.8061147702        0.7105474604
 C          0.4222850798       -0.2366917693       -0.1596083294
 C          0.5558666296       -0.5800931185       -1.5002611197
 C          1.5750080793       -0.0383154077       -2.2630690296
 C          2.4839094892        0.8444348822       -1.7071531092
 C          2.3566339494        1.1953421513       -0.3697224390
 C          1.3316039697        0.6542934806        0.3937450809
 H          1.2253188698        0.9416753799        1.4316460911
 N          3.2976580993        2.0704010012        0.2056689314
 S          4.9090496594        1.6497308717        0.0057375408
 O          5.5987932695        2.2144404312        1.1441739210
 O          5.3641788390        2.0902839026       -1.2889900890
 C          4.9161905098       -0.1332442683        0.0787728397
 C          5.1953360298       -0.8701697476       -1.0537645909
 C          5.1252741401       -2.2526104976       -0.9874927317
 C          4.7739748105       -2.8702279085        0.2023500980
 C          4.5020096206       -2.1159574992        1.3336062485
 C          4.5706311302       -0.7339249592        1.2733785094
 H          4.3705222303       -0.1173684698        2.1353040898
 H          4.2327044809       -2.5998170999        2.2589811383
 H          4.7119747808       -3.9458224285        0.2509822073
 H          5.3386002801       -2.8419304370       -1.8645796621
 H          5.4623921294       -0.3503037169       -1.9590981206
 H          3.1024961394        2.2946236505        1.1707042616
 H          3.2862652390        1.2722456327       -2.2863851291
 H          1.6647405991       -0.3084420970       -3.3041340198
 H         -0.1606881003       -1.2521149684       -1.9445843200
 H         -0.4288039897       -0.5566877507        1.7520900605
 C         -0.7624414295       -2.3144156701        0.5903989995
 C          0.3233372108       -3.1478703302        1.1993577688
 C         -1.0428648190       -3.1292320309        1.8152820791
 H         -1.6662043288       -4.0055644510        1.7186311586
 H         -1.1767097790       -2.6016749216        2.7488929194
 H          0.6409898309       -4.0385103598        0.6802832481
 H          1.1190951908       -2.6288930203        1.7123861089
 H         -1.1988429496       -2.6515616196       -0.3396266506
