  62
        -98.95135288
 C         -2.3394748124       -0.0713318114        0.1138401901
 C         -1.6132029912        0.4916422134       -0.9619466444
 C         -1.4422983169        1.9488956063       -0.9259772669
 C         -1.8830719436        2.6438763609        0.1383018813
 C         -1.7837572301        4.1330985242        0.3287607582
 C         -0.4199908293        4.6009762112        0.8547279170
 C          0.7091071426        4.6003633427       -0.1762789398
 H          0.3796300330        5.1231241214       -1.0753846409
 H          1.5327499888        5.1742681061        0.2532498681
 C          1.2283186836        3.2048958158       -0.5495610470
 H          2.3216212200        3.2182682346       -0.5671475166
 H          0.9387586034        2.4847450325        0.2197549049
 C          0.7637442740        2.6973531917       -1.9138293206
 H          1.1786371720        1.6980752664       -2.0580279368
 H          1.1623809881        3.3451365978       -2.6984064053
 C         -0.7584253525        2.6148219747       -2.0837102193
 H         -1.1707854222        3.6135967735       -2.2302332870
 H         -0.9676717051        2.0169339314       -2.9745781140
 H         -0.5453465056        5.6213116378        1.2253683745
 H         -0.1359824569        3.9702796899        1.7010814711
 H         -2.0072736007        4.6411699215       -0.6101125688
 H         -2.5478333542        4.4030595035        1.0611077224
 O         -2.5108941031        2.0547957710        1.1907401173
 C         -2.7588285213        0.6930289022        1.2016781223
 O         -3.3586956473        0.2860820733        2.2195447029
 O         -1.1415231127       -0.1854485272       -1.9133579407
 C         -2.6096814658       -1.5659924062        0.1530636563
 C         -1.3001700866       -2.3159272798        0.1954180643
 C         -1.0197653249       -3.4324213828       -0.5822156127
 C          0.2168316627       -4.0500763525       -0.4996847029
 C          1.2036737051       -3.5559049475        0.3341637984
 C          0.9291916451       -2.4433656428        1.1211794090
 C         -0.3237361825       -1.8554763071        1.0693079337
 H         -0.5267476967       -0.9957986026        1.6912687546
 N          1.9059469322       -1.8715036716        1.9637304070
 S          2.3559380215       -0.2917417787        1.6220115171
 O          3.4329838292       -0.0009022694        2.5437936638
 O          1.2077271299        0.5740082565        1.6904274313
 C          3.0070278754       -0.3776269198       -0.0369181837
 C          4.3781870995       -0.3617246499       -0.2096509714
 C          4.8981463298       -0.5073852486       -1.4852194092
 C          4.0420901546       -0.6813758719       -2.5626358106
 C          2.6696415077       -0.7018836425       -2.3720667517
 C          2.1410746954       -0.5472129963       -1.0989156398
 H          1.0745553829       -0.5509603813       -0.9368180657
 H          1.9930466182       -0.8349711811       -3.2013681163
 H          4.4448320078       -0.8009682933       -3.5559762611
 H          5.9657286915       -0.4892861860       -1.6343500821
 H          5.0031874058       -0.2282361215        0.6585801064
 H          2.7381620689       -2.4371267798        2.0639983161
 H          2.1769193539       -4.0211289570        0.3764903381
 H          0.4214182482       -4.9170457393       -1.1089231696
 H         -1.7673185104       -3.8155362412       -1.2572315563
 H         -3.1370671644       -1.7520682998        1.1006121903
 C         -3.5063077509       -1.9747056956       -0.9967888038
 C         -4.4272091899       -3.1482399537       -0.8548764128
 C         -4.9833560924       -1.7570001677       -0.8730167507
 H         -5.5315709215       -1.4290884925       -1.7433467996
 H         -5.3455499667       -1.3361814353        0.0541235099
 H         -4.5989683185       -3.7769377716       -1.7154929010
 H         -4.4218839343       -3.6775573881        0.0860576480
 H         -3.0533561830       -1.7902861540       -1.9638536738
