  62
        -98.94947550
 C         -1.0560237802       -1.7333105993        0.1143697042
 C         -1.6902562781       -0.9557241053        1.1118618452
 C         -2.8411068275       -0.1596071598        0.6715386992
 C         -3.2186433602       -0.1924355917       -0.6194460563
 C         -4.3711335072        0.5630598633       -1.2233243425
 C         -4.0365407279        2.0169952755       -1.5845904228
 C         -3.9362060004        2.9761671894       -0.3977053744
 H         -3.9428786814        3.9890830349       -0.8053642574
 H         -4.8208560857        2.8707485638        0.2319428357
 C         -2.6697272291        2.8000979628        0.4513940475
 H         -2.2413204123        3.7817573735        0.6704473691
 H         -1.9185856964        2.2581883778       -0.1295473030
 C         -2.8961645446        2.0976662893        1.7904584015
 H         -1.9302611498        1.9961228314        2.2911223530
 H         -3.5354316234        2.7198475633        2.4214206634
 C         -3.5309843174        0.7051015022        1.6843260857
 H         -3.4359777936        0.2129904338        2.6558032463
 H         -4.5896427119        0.7953134668        1.4410521621
 H         -3.0950137183        2.0329745688       -2.1400520491
 H         -4.8239003800        2.3773946013       -2.2511518775
 H         -5.2240109420        0.5419729183       -0.5436846579
 H         -4.6425438554        0.0337331767       -2.1393464618
 O         -2.5892334337       -0.9595607766       -1.5482477657
 C         -1.4876765925       -1.7345993671       -1.2128085812
 O         -0.9999761358       -2.3715494350       -2.1662287388
 O         -1.3131921079       -0.9284641594        2.3149285624
 C          0.1634730082       -2.5499959084        0.4898197116
 C          1.4002104543       -2.0911571552       -0.2480606036
 C          2.5120580009       -2.9118177774       -0.4086677637
 C          3.6403944339       -2.4436600728       -1.0584566105
 C          3.6968452978       -1.1507883952       -1.5485459153
 C          2.5912992781       -0.3229388712       -1.3941834791
 C          1.4624870304       -0.7993392872       -0.7465593836
 H          0.6026364305       -0.1553367811       -0.6662615795
 N          2.5891507225        0.9883350245       -1.8866198731
 S          1.6758358397        2.1816717042       -1.1611696004
 O          0.2725096544        1.9814544429       -1.4228442879
 O          2.2431820793        3.4123198870       -1.6701059119
 C          2.0298126893        2.0339035539        0.5803169509
 C          1.0765561803        1.5495187398        1.4506495948
 C          1.4041292280        1.3846358039        2.7868509799
 C          2.6750653078        1.7139069788        3.2302164912
 C          3.6202478209        2.2146832869        2.3467704856
 C          3.2994053994        2.3717485287        1.0087127500
 H          4.0044597779        2.7634971930        0.2937501504
 H          4.6058873985        2.4763246335        2.6964454714
 H          2.9280633052        1.5807079178        4.2701919970
 H          0.6622964906        0.9819777768        3.4588992244
 H          0.0946795909        1.2987091299        1.0823439964
 H          3.4722998584        1.3287343251       -2.2346237989
 H          4.5777263168       -0.7890227141       -2.0558508207
 H          4.4928892920       -3.0940358502       -1.1819959612
 H          2.4893086016       -3.9209674294       -0.0305282966
 H          0.3234145368       -2.3568459757        1.5623846378
 C         -0.1042346691       -4.0314219222        0.3009084695
 C          0.4421712483       -5.0385184675        1.2673099003
 C         -1.0231016344       -4.7270102710        1.2592028433
 H         -1.7106700922       -5.4639699444        0.8722742590
 H         -1.4259160630       -4.1389299593        2.0710495579
 H          0.7623162973       -5.9963892248        0.8856672025
 H          1.0272704284       -4.6729808455        2.0977730683
 H         -0.1720335436       -4.3084132130       -0.7451218794
