  62
        -98.94947312
 C          0.8756319033        1.7445884734       -0.2705840714
 C          2.1623037636        1.6824071302        0.3111479635
 C          3.0289575312        0.5998250674       -0.1667601223
 C          2.5716835382       -0.2592570086       -1.0955720550
 C          3.3309032832       -1.4234462535       -1.6730203161
 C          3.2971674065       -2.6838046961       -0.7970056917
 C          4.1717440986       -2.6316164478        0.4560234485
 H          4.2480173739       -3.6529048873        0.8349521771
 H          5.1777494540       -2.3062555132        0.1877177102
 C          3.6157008072       -1.7370917239        1.5728529828
 H          2.5499099383       -1.5600032397        1.4047511327
 H          3.6948830869       -2.2602481943        2.5292538821
 C          4.3358192434       -0.3977299879        1.7318149247
 H          5.3604718609       -0.5726837940        2.0692678896
 H          3.8199291057        0.1764990690        2.5057364087
 C          4.3833804046        0.4562575078        0.4589807988
 H          4.7275293167        1.4567538889        0.7341852216
 H          5.0878850496        0.0280289414       -0.2540419109
 H          3.6302416308       -3.5214990284       -1.4146877380
 H          2.2652454757       -2.8801495275       -0.4941076892
 H          4.3670478609       -1.1348594810       -1.8536083240
 H          2.8628792668       -1.6554309633       -2.6321349794
 O          1.3361803788       -0.1501776501       -1.6511695355
 C          0.4513184160        0.8362567403       -1.2411256976
 O         -0.6558182057        0.8040734155       -1.8099031752
 O          2.5668254195        2.4924312677        1.1903533443
 C         -0.1090396079        2.7864987512        0.2204489680
 C         -1.3754261169        2.1368999820        0.7257746344
 C         -2.6054206265        2.7853879551        0.7061069113
 C         -3.7411835959        2.1528191646        1.1803684784
 C         -3.6850044687        0.8549376121        1.6556683916
 C         -2.4604380325        0.1983300023        1.6782604197
 C         -1.3188857373        0.8516556949        1.2456785204
 H         -0.3759255640        0.3285012944        1.2926368736
 N         -2.3464387401       -1.1298017477        2.1278898694
 S         -1.4303478470       -2.2108277630        1.2429743518
 O         -1.8541190726       -3.5095871587        1.7297067668
 O         -0.0243399105       -1.9278580668        1.3910437211
 C         -1.9141139419       -2.0604804489       -0.4678452061
 C         -0.9647859484       -2.3251320450       -1.4315390579
 C         -1.3236690568       -2.2711532701       -2.7674920581
 C         -2.6256069668       -1.9545672704       -3.1170692480
 C         -3.5720230919       -1.6986864809       -2.1382158787
 C         -3.2185830499       -1.7567880713       -0.8002633049
 H         -3.9433632796       -1.5603139223       -0.0275316178
 H         -4.5843701750       -1.4484404581       -2.4124240025
 H         -2.9018102643       -1.9015640353       -4.1584435449
 H         -0.5823585086       -2.4630691399       -3.5266824100
 H          0.0429954630       -2.5490460857       -1.1202061274
 H         -3.2128631093       -1.5550143513        2.4253541016
 H         -4.5753346080        0.3553993718        2.0068171764
 H         -4.6874305181        2.6715228422        1.1637991679
 H         -2.6732401766        3.7878513802        0.3158675396
 H          0.3870067077        3.2859794576        1.0671318724
 C         -0.3768532763        3.8161982858       -0.8607726421
 C         -0.5921105620        5.2575157568       -0.5097218831
 C          0.6828466395        4.8297038483       -1.1698801296
 H          0.8517806273        5.1026348666       -2.2006443070
 H          1.5832805500        4.7979980101       -0.5736932524
 H         -1.3001509595        5.8291630582       -1.0907374683
 H         -0.5496076895        5.5324005229        0.5335445550
 H         -0.9321143021        3.4018827690       -1.6948171320
