  62
        -98.92948272
 C         -2.3378176406       -1.3376407825        0.0721301429
 C         -2.3006155007        0.0163839844       -0.3405357676
 C         -3.6068640701        0.6436465763       -0.6142440528
 C         -4.7324918785       -0.0739937787       -0.4525123812
 C         -6.1330851176        0.4432304806       -0.6197232547
 C         -6.5389107408        1.2736967098        0.6146150692
 C         -6.7692192822        2.7575715739        0.3276316969
 H         -7.7321319861        2.8769506811       -0.1732736367
 H         -6.8319631763        3.2707314767        1.2895120185
 C         -5.7052108930        3.4434500168       -0.5346663767
 H         -5.8569663053        4.5199180013       -0.4309778600
 H         -5.8747755448        3.2057112826       -1.5858573584
 C         -4.2469203263        3.1166343408       -0.1873098937
 H         -3.6603986920        4.0324489007       -0.2853090184
 H         -4.1599795384        2.7947049232        0.8506719522
 C         -3.5893225787        2.0661823669       -1.1020598593
 H         -4.0384188068        2.1164399929       -2.0981447703
 H         -2.5280175688        2.3114684288       -1.2081880956
 H         -7.4533387597        0.8626079033        1.0447476105
 H         -5.7591182831        1.1647598771        1.3712819970
 H         -6.7871875757       -0.4222849044       -0.7268441947
 H         -6.1975508016        1.0437100992       -1.5243235210
 O         -4.7281096839       -1.3645104554       -0.0276883963
 C         -3.5423574121       -2.0220329766        0.2529645588
 O         -3.6900268606       -3.1920378906        0.6574043407
 O         -1.2405690404        0.6818541813       -0.4771216204
 C         -1.0704676484       -2.1146174103        0.3841762415
 C         -0.1146227475       -1.2628619590        1.1835106599
 C         -0.5371476316       -0.7658401828        2.4138978345
 C          0.2954704622        0.0285209665        3.1769370934
 C          1.5695503284        0.3360276465        2.7339668825
 C          2.0080714356       -0.1687104480        1.5152152268
 C          1.1678690795       -0.9658242655        0.7504473827
 H          1.5193981116       -1.3191485127       -0.2032860725
 N          3.3227751985        0.0880597322        1.0862479082
 S          3.7331626124        0.1866979862       -0.5451074224
 O          3.0257855633        1.2674318539       -1.1948641898
 O          3.6106546244       -1.1178295106       -1.1447383747
 C          5.4604432324        0.6025024179       -0.3774508931
 C          6.3524491769       -0.4062819994       -0.0662252376
 C          7.6923990638       -0.0913206059        0.0926382670
 C          8.1167850421        1.2202220734       -0.0616772146
 C          7.2109470088        2.2216480150       -0.3767111390
 C          5.8688384186        1.9130608513       -0.5354597449
 H          5.1303100777        2.6568808018       -0.7885217489
 H          7.5441057196        3.2395970644       -0.4997117459
 H          9.1604485744        1.4628669345        0.0616212975
 H          8.4000128062       -0.8677747458        0.3347982687
 H          5.9781568800       -1.4115449699        0.0345339406
 H          3.7492313138        0.8502950122        1.5959317565
 H          2.2185110528        0.9631030772        3.3264826899
 H         -0.0506178872        0.4177665424        4.1229156112
 H         -1.5375034646       -0.9991855107        2.7545826304
 H         -1.3984353292       -2.9461279341        1.0309440479
 C         -0.4214819407       -2.7472370395       -0.8380841604
 C         -1.2262897927       -3.1329635574       -2.0419875394
 C         -0.2491533666       -2.0007061760       -2.1253511610
 H          0.6679419571       -2.1425711567       -2.6794685455
 H         -0.6271264525       -0.9911942147       -2.1709983690
 H         -0.9861973939       -4.0594323135       -2.5415276382
 H         -2.2811377595       -2.8992192963       -2.0372660844
 H          0.3810996773       -3.4259033552       -0.5639570565
