  62
        -98.94356322
 C         -1.8311326225       -0.3115026687       -0.2738180274
 C         -2.9762017638       -0.5993244772       -1.0533664331
 C         -4.2569783028       -0.6082931077       -0.3344260261
 C         -4.2686830008       -0.3685398951        0.9898796860
 C         -5.5063990565       -0.2977859075        1.8357451269
 C         -6.0489529157        1.1364466947        1.9078930072
 C         -6.1807887214        1.8164605003        0.5451413567
 H         -5.1848353744        1.9573768166        0.1191616876
 H         -6.6005812422        2.8100009097        0.7166063491
 C         -7.0579966838        1.0578774781       -0.4605788928
 H         -7.7248298955        1.7700276781       -0.9512670006
 H         -7.6851265458        0.3363981853        0.0644002945
 C         -6.2798897610        0.3420433156       -1.5661918304
 H         -5.5815467197        1.0404964419       -2.0341355972
 H         -6.9914169900        0.0274593731       -2.3343920000
 C         -5.4967766403       -0.9030746161       -1.1312097198
 H         -5.1560392871       -1.4140985978       -2.0366618742
 H         -6.1562008329       -1.5795637780       -0.5834913382
 H         -5.3709469984        1.7319938585        2.5234341395
 H         -7.0227423622        1.1123796430        2.4004131388
 H         -5.2535905370       -0.6323284966        2.8432398818
 H         -6.2619508271       -0.9627657425        1.4217868007
 O         -3.1454449069       -0.1145227767        1.7084145067
 C         -1.8997055313       -0.0732506000        1.0990443629
 O         -0.9565505834        0.1770119531        1.8719155175
 O         -2.9280120743       -0.8437778176       -2.2897200531
 C         -0.4725063541       -0.2760112747       -0.9479107931
 C          0.4577945811       -1.2894782586       -0.3282574590
 C         -0.0204278097       -2.5667867967       -0.0456718028
 C          0.8009526501       -3.5197621193        0.5230139648
 C          2.1238791412       -3.2271610450        0.8050762378
 C          2.6167675867       -1.9623006188        0.5125560054
 C          1.7844521014       -1.0021199602       -0.0478794244
 H          2.1872846866       -0.0276587479       -0.2673414800
 N          3.9486680753       -1.6301602973        0.7972902438
 S          4.8278389293       -0.6821400079       -0.2617912109
 O          4.4490778230       -0.9216849072       -1.6347567146
 O          6.2105998524       -0.9558254576        0.0691480932
 C          4.4537201172        0.9971221532        0.1959129177
 C          4.2736681480        1.3104862763        1.5284348734
 C          4.0268619118        2.6286053013        1.8775089780
 C          3.9740200133        3.6072503113        0.8965492657
 C          4.1638959297        3.2774111118       -0.4363600374
 C          4.4061726887        1.9598797681       -0.7928612856
 H          4.5472809597        1.6570736921       -1.8183120642
 H          4.1224108022        4.0397052526       -1.1983209682
 H          3.7819236418        4.6322722026        1.1720990642
 H          3.8745918149        2.8878636334        2.9128953379
 H          4.3162982255        0.5263909863        2.2657489040
 H          4.5048270371       -2.3794964207        1.1821281086
 H          2.7679901112       -3.9710078157        1.2489930568
 H          0.4113246828       -4.5022889071        0.7437451093
 H         -1.0517589042       -2.8008696931       -0.2725159968
 H         -0.6542917360       -0.5778352299       -1.9909128108
 C          0.0779374574        1.1350879001       -0.9391457688
 C          0.9820005503        1.6065097919       -2.0373634135
 C         -0.4256829392        2.1132892451       -1.9563410501
 H         -0.5894892100        3.1360137482       -1.6520997218
 H         -1.1437121284        1.7512366510       -2.6778367751
 H          1.7846680112        2.2826719556       -1.7846506738
 H          1.2290932202        0.9038277173       -2.8191595956
 H          0.2575540423        1.5031906193        0.0650326275
