  62
        -98.94739002
 C         -2.5648356994        0.1283865889        0.4040684499
 C         -2.1736211927        0.7012077073       -0.8302565177
 C         -1.7361396287        2.1032275492       -0.7756248863
 C         -1.7144125571        2.7411264218        0.4085842190
 C         -1.2663338980        4.1591489851        0.6148173007
 C          0.2274551806        4.2375204226        0.9550372749
 C          1.1261986914        3.4590008713       -0.0061344295
 H          2.1597527449        3.6418862350        0.2984694689
 H          0.9493449160        2.3872448228        0.1176365332
 C          0.9543356005        3.8329068505       -1.4850384994
 H          0.4694191804        4.8068910631       -1.5686032287
 H          1.9440968574        3.9210951718       -1.9376739006
 C          0.1801038737        2.8015084244       -2.3085270182
 H          0.5877971473        1.8064186212       -2.1147831210
 H          0.3348250685        3.0242127189       -3.3680888132
 C         -1.3343671343        2.7555439579       -2.0682430018
 H         -1.7510764565        3.7634137959       -2.1368746925
 H         -1.7776404449        2.1440351248       -2.8598021820
 H          0.5231324854        5.2887685158        0.9604678433
 H          0.3768073852        3.8345649922        1.9596674217
 H         -1.4745132254        4.7323186081       -0.2867606948
 H         -1.8394278564        4.5799277534        1.4432423532
 O         -2.0854532945        2.1531883554        1.5761030412
 C         -2.5009287045        0.8326563367        1.6046213812
 O         -2.7950709827        0.4090860547        2.7429483895
 O         -2.2066718228        0.0789072257       -1.9246532365
 C         -3.0018667586       -1.3244666112        0.4598938071
 C         -1.8892837999       -2.2100190923       -0.0485260542
 C         -2.0985518656       -3.3140668555       -0.8650796555
 C         -1.0257265090       -4.0690787949       -1.3075367049
 C          0.2704936375       -3.7336781291       -0.9621249633
 C          0.4883363123       -2.6401477943       -0.1317858221
 C         -0.5893468143       -1.9060580305        0.3331825011
 H         -0.4084628818       -1.0590623180        0.9798181990
 N          1.7884844328       -2.2633168646        0.2585781014
 S          2.0969344336       -0.5984577033        0.2865582640
 O          1.6420772851       -0.0581399312        1.5444044829
 O          1.5764658747        0.0177760813       -0.9106202925
 C          3.8798399915       -0.5968447623        0.2576588044
 C          4.5489910287       -0.1766116272       -0.8754843900
 C          5.9352611836       -0.2032852041       -0.8834073305
 C          6.6235146730       -0.6500108132        0.2342187111
 C          5.9372673549       -1.0679463507        1.3652833612
 C          4.5519829516       -1.0417320680        1.3807897696
 H          3.9757905400       -1.3468437450        2.2387938190
 H          6.4757657601       -1.4122927777        2.2333719999
 H          7.7017871050       -0.6703169234        0.2253156401
 H          6.4708616142        0.1242829174       -1.7597581859
 H          3.9697734374        0.1652222301       -1.7182311950
 H          2.5017919254       -2.7483003565       -0.2705681250
 H          1.1065887485       -4.3089424949       -1.3301334728
 H         -1.2012397331       -4.9210341830       -1.9468490735
 H         -3.1002205175       -3.5762807411       -1.1643302339
 H         -3.1592465656       -1.5529550685        1.5251161179
 C         -4.3103297548       -1.5151528591       -0.2792157351
 C         -5.2845093853       -2.5640634649        0.1638680605
 C         -5.5851643436       -1.1151447110        0.3987003213
 H         -6.3566100471       -0.6429980261       -0.1906800769
 H         -5.5080006668       -0.7306073528        1.4056406792
 H         -5.8556820550       -3.0878111614       -0.5877451102
 H         -5.0150840714       -3.1680185708        1.0171828277
 H         -4.2204198742       -1.3092908754       -1.3395959844
