  62
        -98.93827668
 C         -1.9256657768       -0.8407735262        0.3043547147
 C         -2.3814408463        0.3387572251       -0.3274462030
 C         -3.7727717168        0.7398708566       -0.0443266079
 C         -4.5237352589       -0.0079698497        0.7853720505
 C         -5.9410116167        0.1748928981        1.2872159608
 C         -6.8874842470        1.1664011790        0.6156850772
 C         -7.2986242280        0.7939527005       -0.8082943900
 H         -7.8901872464        1.6153165182       -1.2185985638
 H         -7.9412543512       -0.0890319527       -0.7646521106
 C         -6.1510691427        0.4813496116       -1.7653320438
 H         -6.5854402526        0.2321029869       -2.7373334689
 H         -5.6137616992       -0.4031659206       -1.4173261636
 C         -5.1515402715        1.6161112576       -1.9808546663
 H         -5.6812565658        2.5189141587       -2.2911380579
 H         -4.4891421409        1.3198706071       -2.7986933126
 C         -4.2657844612        1.9584836703       -0.7700359219
 H         -4.7741284191        2.6336710255       -0.0857623182
 H         -3.3750903453        2.4762706919       -1.1382674948
 H         -6.4658174007        2.1669272501        0.6412497632
 H         -7.7951782823        1.1905845285        1.2249387023
 H         -6.3940080745       -0.8214396926        1.2665775420
 H         -5.8478086842        0.4480614240        2.3442441648
 O         -4.0298319704       -1.1297093667        1.3878182796
 C         -2.7384521666       -1.5711179533        1.1705069013
 O         -2.4363080324       -2.6075219900        1.7950697040
 H          1.2940893403        0.2895709389       -1.2287023893
 C          1.3095408974        0.4201957474       -0.1583107379
 C          0.4593335737       -0.3241273376        0.6427919033
 C          0.4960293760       -0.1209584462        2.0200063749
 C          1.3590762616        0.8024543411        2.5783492247
 C          2.2057246112        1.5465974748        1.7738249585
 C          2.1720582104        1.3543809895        0.4007011103
 N          3.0565623032        2.0915991458       -0.4193053830
 S          4.6764115184        1.7113383769       -0.2117414591
 O          5.1208045406        2.2205489203        1.0601430011
 O          5.3557496092        2.2227828011       -1.3803104924
 C          4.6985024903       -0.0723026273       -0.2029619407
 C          4.5842239205       -0.7433335690        0.9977668433
 C          4.4954479502       -2.1260996955        0.9850611964
 C          4.5201713386       -2.8093012200       -0.2208556621
 C          4.6394161801       -2.1206814032       -1.4184353883
 C          4.7222904382       -0.7379893526       -1.4123872937
 H          4.8186673408       -0.1653197138       -2.3209581726
 H          4.6606773712       -2.6568603828       -2.3535519623
 H          4.4466980239       -3.8855879009       -0.2278631216
 H          4.4009926121       -2.6641087241        1.9146322706
 H          4.5707967189       -0.1764031659        1.9139716563
 H          2.8200339020        2.0335652090       -1.4001610249
 H          2.8965949853        2.2628172888        2.1885777023
 H          1.3744179826        0.9460556008        3.6482199844
 H         -0.1680873039       -0.7006953979        2.6468449149
 C         -0.5072905450       -1.3406762245        0.0875548071
 H         -0.4170584272       -2.2542420945        0.6910983590
 C         -0.2617211316       -1.6892919776       -1.3651239717
 C          0.9177030380       -2.5394218955       -1.7294159014
 C         -0.4689262504       -3.1000590255       -1.8231898987
 H         -0.8943467075       -3.2660193974       -2.8016116090
 H         -0.7819547412       -3.8229589153       -1.0841079997
 H          1.5528778286       -2.8788043823       -0.9253161849
 H          1.4463366074       -2.3236692159       -2.6454146318
 H         -0.5518192392       -0.8977281058       -2.0457888717
 O         -1.6667240092        1.0357661354       -1.0944756480
