  62
        -98.94630543
 C         -2.5758739933       -0.0079837553       -0.4140303417
 C         -2.1773860707       -0.5772029918        0.8196969933
 C         -1.8721570569       -2.0129744091        0.7894525479
 C         -1.9715775333       -2.6942094781       -0.3666494890
 C         -1.7540158578       -4.1725001430       -0.5493946734
 C         -0.2857834599       -4.5777060063       -0.7321413431
 C          0.5638230889       -4.5165177406        0.5371408096
 H          0.0588154447       -5.0550665891        1.3399021770
 H          1.4969362086       -5.0422527617        0.3254808089
 C          0.8973877039       -3.0924173436        1.0007961175
 H          1.9558600635       -3.0290793803        1.2662618105
 H          0.7468478317       -2.3869747997        0.1795373440
 C          0.1083963474       -2.6053073204        2.2161922284
 H          0.3958344841       -1.5658226841        2.3952240888
 H          0.3880101671       -3.1928563777        3.0945067745
 C         -1.4162076406       -2.6651078341        2.0595483067
 H         -1.7566815526       -3.7006014989        2.0980354121
 H         -1.8652539129       -2.1160541606        2.8913326593
 H         -0.2747645825       -5.6046295920       -1.1051800232
 H          0.1612829141       -3.9376084872       -1.4965304630
 H         -2.1774045911       -4.7100143680        0.2999058391
 H         -2.3040185147       -4.4547528349       -1.4498959369
 O         -2.3343918599       -2.1033761615       -1.5369456844
 C         -2.6233627572       -0.7501866675       -1.5924772068
 O         -2.9193250141       -0.3337986999       -2.7328033174
 H         -0.3343326343        0.9965957959       -0.9573742127
 C         -0.4690696933        1.9026540304       -0.3847654277
 C         -1.7506927104        2.3090525686       -0.0388546935
 C         -1.8999310674        3.4847707872        0.6865304565
 C         -0.7889124777        4.2144965101        1.0722459214
 C          0.4869737849        3.7828603720        0.7597012403
 C          0.6463319825        2.6140565616        0.0245283204
 N          1.9286136321        2.1415546869       -0.3273766569
 S          2.2099694036        0.4950304173       -0.0432024104
 O          1.5825861504       -0.2811427852       -1.0833345000
 O          1.8587064614        0.1719099713        1.3201153184
 C          3.9807988367        0.4393354675       -0.2473219260
 C          4.7964439280        0.3847371779        0.8666592690
 C          6.1714786539        0.3735177272        0.6908447858
 C          6.7039472973        0.4203610913       -0.5886258269
 C          5.8721183749        0.4740642443       -1.6975323086
 C          4.4967604208        0.4840963383       -1.5285545632
 H          3.8101836822        0.5169116066       -2.3585683927
 H          6.2892699969        0.5079203673       -2.6910246659
 H          7.7740152003        0.4122622729       -0.7231066629
 H          6.8201665342        0.3283817535        1.5507455391
 H          4.3356780093        0.3429878957        1.8406093434
 H          2.6590985350        2.6855396230        0.1154534169
 H          1.3528251528        4.3423578121        1.0809061975
 H         -0.9183603867        5.1244349873        1.6384967131
 H         -2.8862451506        3.8252539520        0.9566999735
 C         -2.9187855003        1.4678757387       -0.4950903041
 H         -3.0936763367        1.6802898963       -1.5610304064
 C         -4.1942462282        1.7502033781        0.2737476061
 C         -5.1372772517        2.8209855995       -0.1843324075
 C         -5.5063560073        1.3780417012       -0.3466407344
 H         -6.2774720900        0.9650377566        0.2859952952
 H         -5.4781292775        0.9487010494       -1.3378640834
 H         -5.6610813128        3.4000527772        0.5612630055
 H         -4.8714336856        3.3759887955       -1.0713540877
 H         -4.0790932137        1.5858758345        1.3391187408
 O         -2.1044494572        0.0740741633        1.8953106703
