  62
        -98.93745444
 C          1.6750034500        0.5627653397        0.1474465391
 C          2.8015232302        0.5309945607        1.0122592789
 C          3.9473408002       -0.2814777297        0.5809495896
 C          3.8694363700       -0.9507837809       -0.5831167397
 C          4.9734965799       -1.7577690715       -1.2046226391
 C          6.0108074797       -0.8199875321       -1.8546118503
 C          7.3896057099       -0.8524588613       -1.1951276505
 H          7.9033424399       -1.7694547616       -1.4915085597
 H          7.9620545197       -0.0113557417       -1.5920433115
 C          7.3989381602       -0.7841364497        0.3350676394
 H          7.1692248103       -1.7676072093        0.7479812605
 H          8.4226067802       -0.5520245993        0.6365882190
 C          6.4537367602        0.2462754509        0.9664120585
 H          6.2333430700        1.0484646101        0.2618706278
 H          6.9667777703        0.7015532518        1.8159599980
 C          5.1338701003       -0.3387113387        1.5027973894
 H          5.2962241005       -1.3714614983        1.8240635504
 H          4.8305032205        0.2344575822        2.3838941289
 H          6.1292691596       -1.0822059132       -2.9070513000
 H          5.6168000897        0.1980699479       -1.8271008913
 H          5.4428299601       -2.3822603907       -0.4475769486
 H          4.5203700598       -2.4033308523       -1.9573862884
 O          2.7737526298       -0.9055766918       -1.3808859996
 C          1.6521256899       -0.1609521616       -1.0441079601
 O          0.7353981497       -0.2476302725       -1.8868061199
 H         -0.8823735400       -0.6390736611       -0.4734312492
 C         -1.2114151798       -0.4141860501        0.5302211907
 C         -0.5904297698        0.6051158806        1.2379202195
 C         -1.0308931295        0.8799164819        2.5269379293
 C         -2.0673023494        0.1545085825        3.0897808403
 C         -2.6829726395       -0.8616025383        2.3807829214
 C         -2.2417387597       -1.1489061196        1.0962523716
 N         -2.8735829697       -2.1758028004        0.3551950228
 S         -4.4518144999       -1.8186636810       -0.0880353273
 O         -5.2861667996       -1.8701655898        1.0855579330
 O         -4.7854813300       -2.7404392521       -1.1500913762
 C         -4.3677118401       -0.1487698916       -0.7078891290
 C         -3.9427646003        0.0476538371       -2.0064431793
 C         -3.8003600105        1.3428731866       -2.4762434306
 C         -4.0744524904        2.4128700474       -1.6385679917
 C         -4.4910684902        2.1989838887       -0.3338549114
 C         -4.6381657600        0.9057361992        0.1404988200
 H         -4.9623005998        0.6951599502        1.1463107302
 H         -4.6974267901        3.0341007594        0.3157493178
 H         -3.9655567306        3.4203766171       -2.0088839628
 H         -3.4702409707        1.5117904056       -3.4888112709
 H         -3.7423580704       -0.8105621436       -2.6282312084
 H         -2.3515277899       -2.4216268612       -0.4752882770
 H         -3.5010138193       -1.4287320680        2.7946058522
 H         -2.3987226992        0.3813204535        4.0915564401
 H         -0.5489058895        1.6633285026        3.0929558684
 C          0.5054479801        1.4221728801        0.5971833785
 H          0.9214121801        2.0852842409        1.3672837477
 C         -0.0787387102        2.2794064289       -0.5099837423
 C         -0.7992015702        3.5408839392       -0.1453072735
 C          0.5409096296        3.6090552086       -0.8126877238
 H          0.5932033094        3.9290629676       -1.8423737541
 H          1.3928860697        3.9094029693       -0.2200023043
 H         -1.6723884904        3.8144582086       -0.7155849236
 H         -0.8563746801        3.7989258503        0.9010043363
 H         -0.4582247203        1.7040174380       -1.3443407916
 O          2.8447699104        1.1637434418        2.1010484583
