  62
        -98.93632358
 C         -2.0745543765       -1.5687757795        0.0599834378
 C         -1.7368144547       -0.4490730167       -0.7396146029
 C         -2.7869958799        0.5761289248       -0.8743218483
 C         -3.9897108256        0.3785476962       -0.3071263371
 C         -5.1330676342        1.3498514583       -0.3453440756
 C         -5.1056828718        2.2876293420        0.8694167838
 C         -3.7424069505        2.9333979560        1.1164000002
 H         -3.8499800011        3.6019941519        1.9731860335
 H         -3.0269643471        2.1584042487        1.4010203649
 C         -3.1889456064        3.7184461291       -0.0806191739
 H         -3.9956998655        3.9477727402       -0.7777326722
 H         -2.7933445742        4.6703442836        0.2795005421
 C         -2.0530007607        3.0180085352       -0.8287179422
 H         -1.2874121572        2.6990338118       -0.1174345614
 H         -1.5967459488        3.7470104995       -1.5032059786
 C         -2.4526877260        1.8032458708       -1.6754080427
 H         -3.2797715181        2.0685869232       -2.3371706854
 H         -1.5920205319        1.5302278259       -2.2928093837
 H         -5.8584990580        3.0644365997        0.7229626623
 H         -5.3796220552        1.7126348812        1.7570837888
 H         -5.0829625718        1.9278662201       -1.2659861588
 H         -6.0652584097        0.7822714094       -0.3342640857
 O         -4.2911291412       -0.7307482916        0.4152390606
 C         -3.3427899106       -1.7121146731        0.6318489740
 O         -3.7420773814       -2.6606389593        1.3384196679
 H          1.1958356439       -2.0368055765       -1.1295281849
 C          1.2899728328       -1.9041466692       -0.0664758575
 C          0.2330977239       -2.1982630331        0.7806925505
 C          0.4005380088       -1.9429209014        2.1412787507
 C          1.5830947979       -1.4252026693        2.6346294995
 C          2.6388555001       -1.1498893891        1.7836310311
 C          2.4826888373       -1.3870133679        0.4257504824
 N          3.5399969730       -1.1251319497       -0.4624477691
 S          4.4388980856        0.2736000621       -0.3034300273
 O          5.1165777851        0.4233709397       -1.5715515831
 O          5.2880431968        0.1676853447        0.8576759328
 C          3.2661993868        1.5966453797       -0.0788904184
 C          3.1122791458        2.1806845739        1.1615922466
 C          2.1859371187        3.2004905935        1.3104447157
 C          1.4359859276        3.6166054679        0.2217030784
 C          1.6028060326        3.0188571632       -1.0182245130
 C          2.5229428211        1.9961053539       -1.1715926501
 H          2.6824310852        1.5146943291       -2.1228306055
 H          1.0164463317        3.3411391553       -1.8633588211
 H          0.7180452605        4.4133009938        0.3383451870
 H          2.0528390942        3.6672040327        2.2733197162
 H          3.7239108575        1.8373843577        1.9797634927
 H          3.2987567939       -1.2801140273       -1.4304424630
 H          3.5747551219       -0.7618915608        2.1504749413
 H          1.6870919577       -1.2386587920        3.6927425636
 H         -0.4192848833       -2.1510560244        2.8152836627
 C         -1.1099227610       -2.7190168290        0.3361341319
 H         -1.5440984465       -3.2293726902        1.2098909090
 C         -1.1863006907       -3.7462239508       -0.7890702927
 C         -0.7107993592       -3.5273589297       -2.1928336835
 C         -0.0222369961       -4.5294710521       -1.3143847054
 H         -0.1738770288       -5.5773126314       -1.5273696685
 H          0.9604248963       -4.2998516864       -0.9338607303
 H         -1.3351510526       -3.8961224143       -2.9946584371
 H         -0.2271022472       -2.5941337210       -2.4312694877
 H         -2.1244204585       -4.2900160630       -0.7065443696
 O         -0.6334272912       -0.2924074848       -1.3214917826
