  62
        -98.93978542
 C         -1.7408248857       -1.3171567750        0.4802747849
 C         -1.5465819517       -0.2435303212       -0.4250731167
 C         -2.7643536082        0.2858920552       -1.0633060092
 C         -3.9592394312       -0.2559619947       -0.7702389632
 C         -5.2767518884        0.2218755401       -1.3065785712
 C         -5.9045506642        1.2708507129       -0.3782459771
 C         -4.9450073345        2.3897201867        0.0278282105
 H         -5.5047823014        3.0867698634        0.6552519450
 H         -4.1474550567        1.9715224336        0.6466661727
 C         -4.3220808226        3.1509463964       -1.1507606011
 H         -4.9075008406        2.9782147010       -2.0546668400
 H         -4.3633270339        4.2211900295       -0.9374518900
 C         -2.8560132649        2.8093262187       -1.4246956935
 H         -2.4589877981        3.5506094764       -2.1237976272
 H         -2.2775295754        2.8949667469       -0.5005914177
 C         -2.5938425194        1.4243611412       -2.0294237433
 H         -3.2233899507        1.2820751503       -2.9103901577
 H         -1.5467276421        1.3984228825       -2.3456285155
 H         -6.2482145996        0.7691915775        0.5293318324
 H         -6.7741930410        1.6996892669       -0.8793838832
 H         -5.1287783124        0.6420261104       -2.2994113700
 H         -5.9495320456       -0.6342487711       -1.3799581225
 O         -4.1071628770       -1.2843322335        0.1029579808
 C         -3.0143216128       -1.8201295954        0.7635317364
 O         -3.3025767005       -2.7287538467        1.5679328535
 H          1.8968984491       -0.9214523173        0.6016199027
 C          1.4715451256       -0.4673468009        1.4813295182
 C          0.2193763625       -0.8602114575        1.9295891485
 C         -0.3176238783       -0.2360380689        3.0524035566
 C          0.3858972183        0.7461583893        3.7217787819
 C          1.6377566217        1.1301972961        3.2752337009
 C          2.1766747913        0.5278810758        2.1456749897
 N          3.4551639911        0.8962636871        1.6765231014
 S          3.5459796406        1.6400124735        0.1659857088
 O          4.8041773463        2.3602235068        0.2067125456
 O          2.3750685543        2.4428485359       -0.0962907091
 C          3.7011866650        0.3090729336       -1.0023209421
 C          2.6500967736       -0.0052199855       -1.8392600346
 C          2.8256852939       -1.0162309067       -2.7724839953
 C          4.0329333285       -1.6939147495       -2.8440593409
 C          5.0744141327       -1.3708112417       -1.9866514805
 C          4.9113103324       -0.3553493454       -1.0590630254
 H          5.6987368960       -0.0563416891       -0.3873861820
 H          6.0103292276       -1.9030397411       -2.0429069635
 H          4.1609622398       -2.4795290993       -3.5723607024
 H          2.0142522976       -1.2709299179       -3.4359010940
 H          1.7150072533        0.5212672587       -1.7308196212
 H          3.9686170135        1.4643364023        2.3375242785
 H          2.1935364558        1.8985355567        3.7927198473
 H         -0.0415884494        1.2173461983        4.5942565010
 H         -1.2992319727       -0.5354412175        3.3952374775
 C         -0.5909433148       -1.9395861891        1.2559254815
 H         -1.0796383706       -2.5255496114        2.0515316662
 C          0.2587571790       -2.9224604574        0.4652888748
 C         -0.3977397605       -3.9152956804       -0.4468638434
 C          0.4684455717       -2.8330888488       -1.0139826906
 H          1.4386363803       -3.1041857921       -1.4035430493
 H         -0.0024127564       -2.0203618068       -1.5424570811
 H         -0.0309723627       -4.9304484101       -0.4551226664
 H         -1.4677400524       -3.8355619528       -0.5753400864
 H          1.0953037277       -3.2883954234        1.0527949496
 O         -0.4262971081        0.2519132006       -0.7060072990
