  62
        -98.93875932
 C         -1.3934170201       -1.5643845915        0.4713989214
 C         -1.5337082386       -0.2544284045        0.9913849983
 C         -2.7348415627        0.4977035528        0.5897160836
 C         -3.6258119196       -0.0796008619       -0.2381213206
 C         -4.9610944684        0.4051956907       -0.7641942695
 C         -5.3654026374        1.8710101927       -0.6332488162
 C         -4.5439051422        2.8355871441       -1.4883266391
 H         -4.8037018082        2.6746883549       -2.5377063005
 H         -4.8320679111        3.8561508323       -1.2276407615
 C         -3.0286900206        2.6973231580       -1.3633309333
 H         -2.7217777487        1.7043926705       -1.6986736870
 H         -2.5702209337        3.4204661041       -2.0430266267
 C         -2.4602493675        2.9487259060        0.0315110494
 H         -2.7757611110        3.9326643791        0.3831930277
 H         -1.3708958850        2.9529094695       -0.0554924495
 C         -2.8297476329        1.9065488714        1.1002240043
 H         -3.8133275076        2.1002682689        1.5212229341
 H         -2.1012599828        1.9858499556        1.9122775923
 H         -5.3486295163        2.1730884779        0.4096745492
 H         -6.4050956900        1.9384392766       -0.9650297934
 H         -4.9886512140        0.1180092181       -1.8201672130
 H         -5.7158474376       -0.2086312373       -0.2599475774
 O         -3.4387988129       -1.3403985989       -0.7265101077
 C         -2.3190361362       -2.0983547410       -0.4228357931
 O         -2.2876440876       -3.2013091167       -1.0006433283
 O         -0.6933492662        0.2655132462        1.7726927364
 C         -0.1434584935       -2.3439180604        0.8469866325
 C          0.8202070817       -2.2526325705       -0.3107054983
 C          0.9688926710       -3.2553082122       -1.2605999913
 C          1.8336525304       -3.0800767305       -2.3268045787
 C          2.5761913261       -1.9201104825       -2.4549940438
 C          2.4329767292       -0.9101539391       -1.5096888755
 C          1.5510750686       -1.0792807139       -0.4548225334
 H          1.4270797010       -0.2882130299        0.2697650712
 N          3.1610842296        0.2851484872       -1.6098201949
 S          3.8328816648        0.9556954022       -0.2271588781
 O          4.9482414564        1.7390921260       -0.7181928639
 O          4.1553462709       -0.0610057386        0.7468829519
 C          2.5991172565        2.0693052711        0.4060055417
 C          2.1369788462        3.0701534251       -0.4261200425
 C          1.2140228048        3.9760740415        0.0687979247
 C          0.7721360372        3.8670255465        1.3796422805
 C          1.2455078836        2.8569028897        2.2008464412
 C          2.1707722388        1.9489339541        1.7118497133
 H          2.5588174826        1.1453765943        2.3175961761
 H          0.8934714585        2.7638131613        3.2153097593
 H          0.0502900191        4.5715569040        1.7622324129
 H          0.8391509193        4.7629118754       -0.5663978122
 H          2.5085537652        3.1244135391       -1.4360383389
 H          3.8066370585        0.3214260733       -2.3855171365
 H          3.2593354364       -1.7923453674       -3.2813420418
 H          1.9382931513       -3.8627054724       -3.0632375255
 H          0.3922685696       -4.1616031538       -1.1746700836
 H          0.3000076263       -1.7927774767        1.6880314768
 C         -0.4333264373       -3.7589019666        1.2962938325
 C          0.6393256061       -4.5271771099        2.0070724495
 C         -0.5642469452       -4.0485768867        2.7603693971
 H         -1.2971714364       -4.7753250770        3.0772471888
 H         -0.4413653314       -3.2244357980        3.4479025468
 H          0.7362332470       -5.5835992443        1.8088092479
 H          1.5796741129       -4.0243045172        2.1786456495
 H         -1.0871397011       -4.3017568963        0.6257616335
