  62
        -98.94534573
 C          2.4108694831        0.0800625116       -0.0705150038
 C          1.5078709599        0.5558453839        0.9079031794
 C          1.1607095076        1.9799243124        0.8294889777
 C          1.6686999767        2.7312215959       -0.1635812249
 C          1.4184655411        4.1973074995       -0.3948979444
 C         -0.0344693333        4.5687998634       -0.7507205647
 C         -0.8750595795        5.0275401598        0.4475160171
 H         -0.2053406559        5.3920455873        1.2276070454
 H         -1.4908955941        5.8754001910        0.1407040239
 C         -1.8207551180        3.9768097274        1.0368746862
 H         -2.7028358576        3.8925014853        0.3975093766
 H         -2.1531887264        4.3373891660        2.0130465812
 C         -1.2451706279        2.5687938546        1.1972716874
 H         -1.2111504271        2.0719628055        0.2245427659
 H         -1.9386911740        1.9900173655        1.8118412122
 C          0.1637176928        2.5094247153        1.8198400089
 H          0.4674562912        3.4914586512        2.1801150603
 H          0.1642748963        1.8152684630        2.6627837512
 H         -0.5096513011        3.7230953742       -1.2498328446
 H          0.0108234493        5.3862410538       -1.4723601332
 H          2.0746537064        4.4807354930       -1.2203255160
 H          1.7332409675        4.7553081516        0.4899180030
 O          2.5249219566        2.2318454068       -1.0966114401
 C          2.9005285476        0.8995246044       -1.0851563516
 O          3.6678217689        0.5702129848       -2.0146789625
 O          1.0144599652       -0.1757815484        1.8069500048
 C          2.7927106933       -1.3892302134       -0.0899804754
 C          1.5440934297       -2.2321959758       -0.1955168820
 C          1.3439488694       -3.4028822124        0.5254191932
 C          0.1618783001       -4.1121827986        0.3969178163
 C         -0.8506590917       -3.6602342063       -0.4297589185
 C         -0.6551698478       -2.4956597276       -1.1630476578
 C          0.5451946406       -1.8120649900       -1.0645942775
 H          0.6836255984       -0.9110539525       -1.6447155815
 N         -1.6608822402       -1.9737020182       -2.0041615480
 S         -2.2687844871       -0.4605776103       -1.6117834175
 O         -3.3282132274       -0.2244699308       -2.5696071577
 O         -1.2055055565        0.5106601440       -1.5918685732
 C         -2.9827849438       -0.6832922011        0.0084374552
 C         -4.3534935813       -0.8335735208        0.1033524617
 C         -4.9198953584       -1.0810814483        1.3428454408
 C         -4.1076660110       -1.1861013913        2.4622485317
 C         -2.7344101059       -1.0379762515        2.3487620555
 C         -2.1596131614       -0.7842753252        1.1121495809
 H         -1.0930157298       -0.6568970092        1.0137175412
 H         -2.0930722798       -1.1163923253        3.2120580933
 H         -4.5458944264       -1.3831780419        3.4279449001
 H         -5.9884628396       -1.1937675768        1.4313082347
 H         -4.9434135928       -0.7437582573       -0.7945395035
 H         -2.4350009701       -2.6076189572       -2.1510270718
 H         -1.7832318207       -4.1984877287       -0.5082453792
 H          0.0198885060       -5.0193313437        0.9640108362
 H          2.1118565275       -3.7564060021        1.1938401545
 H          3.3876164242       -1.5380977348       -1.0034575329
 C          3.6476545778       -1.7288280646        1.1136944675
 C          4.6888106777       -2.8029521216        1.0256362818
 C          5.1004365741       -1.3637274618        1.0918205204
 H          5.5537931553       -0.9951212541        1.9996196102
 H          5.4779582102       -0.8946399708        0.1944771079
 H          4.8649370929       -3.4233128875        1.8914636991
 H          4.8000297938       -3.3165649603        0.0825941868
 H          3.1146225208       -1.6041218584        2.0490974383
