  62
        -98.93950542
 C         -2.6577089865       -0.8431666951        0.3605107680
 C         -2.6924113845        0.2832764448        1.2177635445
 C         -3.4313301701        1.4509480872        0.7218471051
 C         -4.0078671043        1.3951199277       -0.4928897722
 C         -4.7471110500        2.5274213231       -1.1438862684
 C         -3.8068562942        3.3828311353       -2.0044832017
 C         -2.5229408955        3.7997563887       -1.2871325066
 H         -1.9216406415        2.9094042071       -1.0880079437
 H         -1.9523210801        4.4235963788       -1.9784043989
 C         -2.7492549778        4.5643379031        0.0247734569
 H         -3.7685834075        4.9505015797        0.0571076541
 H         -2.0761877605        5.4238498099        0.0494207136
 C         -2.4768895658        3.7487818136        1.2901226064
 H         -1.4911994266        3.2818526823        1.2193407242
 H         -2.4529441173        4.4367653022        2.1393990809
 C         -3.5047180822        2.6573958801        1.6154488309
 H         -3.2959388107        2.2949920690        2.6263041946
 H         -4.5098555947        3.0835371413        1.6048469222
 H         -4.3499472602        4.2720345860       -2.3296875676
 H         -3.5317761859        2.8084084012       -2.8920912914
 H         -5.5266406038        2.1068887722       -1.7812937722
 H         -5.2121700930        3.1408240102       -0.3746287358
 O         -3.9381723840        0.3036704992       -1.2956276150
 C         -3.2511454679       -0.8361833806       -0.9023932321
 O         -3.2523475063       -1.7480272617       -1.7495857769
 H          0.1611159013       -0.4355483110        0.7856954114
 C          0.3205927344       -1.2541468743        0.0945209192
 C         -0.6593987420       -2.2341353769       -0.0187605507
 C         -0.4472293992       -3.2860718504       -0.8984461051
 C          0.7115958452       -3.3394981143       -1.6548994001
 C          1.6782504393       -2.3571301360       -1.5487856369
 C          1.4808728935       -1.3046752810       -0.6628450923
 N          2.4525122269       -0.2895113597       -0.5510051335
 S          4.0605344167       -0.7924783921       -0.4007117764
 O          4.5525204534       -1.1450133400       -1.7086803367
 O          4.1668377262       -1.8201565225        0.6112898025
 C          4.8424854105        0.7098271819        0.1512979513
 C          5.1550194657        1.6770149629       -0.7850848420
 C          5.7459355088        2.8553818798       -0.3579290227
 C          6.0126353514        3.0459104978        0.9899410012
 C          5.6941630402        2.0654351687        1.9174467227
 C          5.1012635961        0.8850710014        1.4973024342
 H          4.8445010868        0.0923964473        2.1818473596
 H          5.9051519756        2.2149967049        2.9641074934
 H          6.4745626966        3.9630848403        1.3196423370
 H          5.9973468897        3.6194248743       -1.0757426102
 H          4.9387376189        1.4809740966       -1.8222348279
 H          2.2213285473        0.3651305610        0.1847082381
 H          2.5851366643       -2.3948382282       -2.1302463561
 H          0.8638419667       -4.1600673284       -2.3400162166
 H         -1.1912582599       -4.0583388186       -1.0009692468
 C         -1.9036335839       -2.0793633974        0.8216906492
 H         -1.5866739523       -1.8565001971        1.8508676050
 C         -2.7930433925       -3.3027319536        0.8435526332
 C         -2.4014445307       -4.4859721746        1.6756600360
 C         -3.5555737983       -3.6258847596        2.0920968553
 H         -4.5555631712       -4.0213978512        1.9964091917
 H         -3.4254215938       -2.9699681981        2.9405374032
 H         -2.6085086286       -5.4750220674        1.2964501620
 H         -1.4845732709       -4.4152460005        2.2413639770
 H         -3.2888665147       -3.4842886784       -0.1023909748
 O         -2.1284898751        0.3113853901        2.3459218476
