  62
        -98.93654683
 C         -1.7623305804       -1.1662047549       -0.0631262869
 C         -3.1016556895       -1.2452714247        0.3815984217
 C         -4.0350576892       -0.2415918422       -0.1581601287
 C         -3.5819879419        0.6809944201       -1.0278971020
 C         -4.3034349706        1.7861058491       -1.7707343269
 C         -5.6951156592        2.2406797440       -1.3380051332
 C         -5.7499489605        2.9234811047        0.0280395057
 H         -5.2386444312        3.8866891183       -0.0437364676
 H         -6.7969882731        3.1201669850        0.2685833722
 C         -5.1132291043        2.1479427434        1.1786307558
 H         -4.0413661951        2.0410481245        0.9998891206
 H         -5.2297628936        2.7439177015        2.0878419492
 C         -5.7119787981        0.7686355049        1.4480589826
 H         -6.7913329910        0.8566721104        1.5855089844
 H         -5.2847773829        0.4022920974        2.3854301146
 C         -5.4395903587       -0.2955633536        0.3698954064
 H         -5.5564405586       -1.2806451781        0.8309208828
 H         -6.1583261485       -0.2294337084       -0.4433636008
 H         -6.0295184931        2.9673080266       -2.0835424603
 H         -6.3926389571        1.4091705179       -1.3757190556
 H         -3.6256657410        2.6453681046       -1.7545287426
 H         -4.3565110178        1.4564365727       -2.8143829379
 O         -2.2778481427        0.7112527478       -1.4331246496
 C         -1.3387501133       -0.1913492893       -0.9636982198
 O         -0.1898226107       -0.0167097724       -1.4122212856
 H          1.9516819852       -2.4634808277       -0.0876258839
 C          1.7399404646       -1.7015130083        0.6466511590
 C          0.4347645034       -1.4433801999        1.0363368086
 C          0.2121367954       -0.4468039780        1.9840243924
 C          1.2583380753        0.2892927627        2.5045533792
 C          2.5557996112        0.0514503832        2.0838064484
 C          2.7901069925       -0.9504607925        1.1544500045
 N          4.1258207469       -1.1473127084        0.6996534834
 S          4.4388037229       -0.2793855888       -0.7193333793
 O          3.6617178750       -0.8066314500       -1.8210905576
 O          5.8733465930       -0.3381147338       -0.9051545838
 C          3.9381389565        1.3747110886       -0.3095943205
 C          4.8692045990        2.2164433658        0.2674925756
 C          4.4822959922        3.4972674731        0.6261620114
 C          3.1759341141        3.9082011614        0.4067212970
 C          2.2552344582        3.0490186059       -0.1732520034
 C          2.6333477393        1.7657899181       -0.5377363334
 H          1.9326028752        1.0758050958       -0.9842121485
 H          1.2373788099        3.3630918724       -0.3426957670
 H          2.8715404021        4.9040738013        0.6883360157
 H          5.1958988184        4.1685669192        1.0761094011
 H          5.8719279831        1.8500432950        0.4150476345
 H          4.3204368248       -2.1205310654        0.4978980226
 H          3.3827934849        0.6280133730        2.4647036090
 H          1.0633449776        1.0607463808        3.2334230628
 H         -0.8043541977       -0.2484512513        2.2962229528
 C         -0.7500232045       -2.1714509971        0.4549893895
 H         -1.2605222781       -2.7169874974        1.2622968150
 C         -0.3853650435       -3.1531111542       -0.6391324464
 C          0.0604887442       -4.5413503553       -0.2908296440
 C         -1.2906447485       -4.3180449524       -0.8990700078
 H         -1.4549524622       -4.6248659674       -1.9211741753
 H         -2.1610807924       -4.4177439343       -0.2674617391
 H          0.8245766247       -5.0048493980       -0.8972584556
 H          0.1082132863       -4.8034509486        0.7553548210
 H          0.0675042340       -2.6706723469       -1.4998795313
 O         -3.5029241062       -2.1182997983        1.1968949178
