  62
        -98.94479931
 C          2.0475850542        1.3267094072        0.0101009067
 C          2.6529825776        0.6769787872        1.1118236582
 C          3.8465248152       -0.1243853522        0.8115986858
 C          4.2821131945       -0.2032231971       -0.4593431428
 C          5.4551131826       -1.0218580287       -0.9136671786
 C          5.0197028211       -2.4325247211       -1.3340006878
 C          4.1246904896       -3.1324886547       -0.3112222883
 H          3.1733408383       -2.5987709355       -0.2465698386
 H          3.9054098055       -4.1298107514       -0.6989044048
 C          4.7368499896       -3.2519191750        1.0916345281
 H          4.5653760712       -4.2645385589        1.4629634920
 H          5.8161379784       -3.1053480727        1.0380852593
 C          4.1463900791       -2.2921686721        2.1263885711
 H          4.4882185698       -2.6076444614        3.1157676622
 H          3.0561164731       -2.3713879407        2.1177748995
 C          4.5255283051       -0.8148745764        1.9611520425
 H          4.2008630548       -0.2865593665        2.8624183005
 H          5.6102819565       -0.7211956172        1.8805780248
 H          4.4703378077       -2.3597270130       -2.2755529531
 H          5.9143849171       -3.0329733382       -1.5081133123
 H          5.9110887839       -0.5224292557       -1.7701041731
 H          6.1849420422       -1.0801392631       -0.1084896849
 O          3.6664342678        0.4227296995       -1.4938941513
 C          2.5283153964        1.1914492149       -1.2926553717
 O          2.0558330515        1.6889768223       -2.3310387373
 H         -0.0230955042       -0.3301440943        0.4610068464
 C         -0.6513963761        0.2224200944       -0.2267767567
 C         -0.3698009352        1.5624462258       -0.4681347226
 C         -1.1930564885        2.2649228328       -1.3370919442
 C         -2.2466979250        1.6286868009       -1.9721495390
 C         -2.5096734464        0.2907284378       -1.7469309392
 C         -1.7056750143       -0.4161244501       -0.8602581026
 N         -1.9772105280       -1.7702988933       -0.6053100997
 S         -3.5715965191       -2.2286404008       -0.3877391492
 O         -3.5155494294       -3.3947079900        0.4659957832
 O         -4.2012023659       -2.4202774396       -1.6705868649
 C         -4.3466862043       -0.8655955688        0.4644187591
 C         -3.8209607164       -0.4702785575        1.6785991910
 C         -4.3955042376        0.6027714900        2.3399680976
 C         -5.4815182595        1.2581143212        1.7796738689
 C         -6.0017351448        0.8450997098        0.5632072967
 C         -5.4292100615       -0.2259880344       -0.1041294618
 H         -5.7986513215       -0.5779979327       -1.0535477438
 H         -6.8474367257        1.3551418834        0.1310086134
 H         -5.9240146064        2.0951320617        2.2961651871
 H         -3.9914681953        0.9248632014        3.2863792330
 H         -2.9783245358       -1.0019474774        2.0913643418
 H         -1.3730683473       -2.1909162359        0.0846468207
 H         -3.3137430060       -0.2215199450       -2.2498567995
 H         -2.8700844898        2.1831138010       -2.6566524089
 H         -1.0034728389        3.3077271292       -1.5289287366
 C          0.8092509010        2.1727017873        0.2491622813
 H          0.6189532128        2.1069720072        1.3307241798
 C          1.0667991105        3.6196440123       -0.1115118930
 C          0.2848337882        4.7100343999        0.5560540223
 C          1.7302892927        4.5090385002        0.8955095285
 H          2.4503391124        5.2341675680        0.5470353511
 H          1.9777524841        4.0763470817        1.8539961936
 H          0.0122880427        5.5785785876       -0.0239957351
 H         -0.4523734594        4.4188394552        1.2886099965
 H          1.3455279397        3.7482263439       -1.1510456326
 O          2.2121835614        0.7594068965        2.2908241544
