  62
        -98.93859842
 C         -0.0368417442       -1.8128462839       -1.0767834904
 C         -1.1674175760       -2.3292496740       -0.3946426925
 C         -2.4299435397       -1.5976722749       -0.5547909091
 C         -2.4527395284       -0.4997353424       -1.3303694201
 C         -3.6248658052        0.4249023425       -1.5023363859
 C         -3.7288582683        1.3635649466       -0.2822473130
 C         -4.9798736063        1.1542340634        0.5721758387
 H         -4.8294171375        1.7048608032        1.5035595500
 H         -5.8384980194        1.5957065753        0.0608118866
 C         -5.3286327215       -0.3000614858        0.9034851742
 H         -5.8343371452       -0.7585326571        0.0520499537
 H         -6.0533807622       -0.2749805286        1.7201185785
 C         -4.1516095761       -1.1942019256        1.3157931901
 H         -3.3253281084       -0.5927660834        1.6992844440
 H         -4.4816375236       -1.8394395013        2.1328829642
 C         -3.6262297065       -2.1116805122        0.1947874484
 H         -3.2974539668       -3.0561092695        0.6384303695
 H         -4.4345444285       -2.3384773761       -0.5061126807
 H         -3.7205940835        2.4029179741       -0.6179461448
 H         -2.8399403637        1.2252474726        0.3394744481
 H         -3.4564152177        1.0018706483       -2.4122360471
 H         -4.5387234372       -0.1532739885       -1.6198193044
 O         -1.3622855598       -0.0539898916       -2.0002881946
 C         -0.1165553556       -0.6615816099       -1.8604419608
 O          0.7864129032       -0.0830874038       -2.4896223895
 H          1.2904802232        0.0585812648        0.0762212431
 C          1.6777048062       -0.6077077992        0.8312043069
 C          1.7845697428       -1.9632965794        0.5565441531
 C          2.2994690750       -2.8022721856        1.5368231671
 C          2.6789869130       -2.2918475121        2.7665896393
 C          2.5206234562       -0.9476625079        3.0535156171
 C          2.0047827127       -0.1015627325        2.0783364470
 N          1.8000490603        1.2650475956        2.3176964975
 S          0.4676199268        2.0122183984        1.6235107684
 O          0.2412277258        3.1787178385        2.4541650692
 O         -0.6548530264        1.1093604717        1.5052087825
 C          1.0223465538        2.5584905306        0.0242447864
 C          0.0860825623        2.7208640695       -0.9759465813
 C          0.4997144625        3.1822158876       -2.2145840183
 C          1.8361682210        3.4762041039       -2.4287201212
 C          2.7635441688        3.3151288355       -1.4112564690
 C          2.3564028377        2.8555039174       -0.1696905294
 H          3.0527714634        2.7098167544        0.6395124092
 H          3.8040199815        3.5395129031       -1.5835519949
 H          2.1568187964        3.8259020900       -3.3973551047
 H         -0.2210433340        3.2958204348       -3.0082617416
 H         -0.9419030732        2.4616129787       -0.7777421535
 H          1.9524826652        1.5678017525        3.2687302443
 H          2.7811691717       -0.5568138906        4.0252309237
 H          3.0776539206       -2.9527295167        3.5212090551
 H          2.3762590160       -3.8617905691        1.3421238462
 C          1.2896077361       -2.4880752702       -0.7695105782
 H          1.0530918605       -3.5555421148       -0.6316107338
 C          2.3251257439       -2.3839890425       -1.8764879814
 C          3.4934869985       -1.4513386172       -1.8125425378
 C          3.7081206247       -2.9262277541       -1.6659258261
 H          4.1782335090       -3.4645961980       -2.4747315244
 H          3.9541171270       -3.2991801696       -0.6833667371
 H          3.7937644467       -0.9648549630       -2.7272923016
 H          3.5966957758       -0.8293130232       -0.9370686338
 H          1.8851080838       -2.5355620969       -2.8561193700
 O         -1.1151096049       -3.3648177713        0.3249460310
