  62
        -98.93371266
 C          2.5658457574        1.2253815405        0.1787149734
 C          2.7937109591        0.2173369014       -0.7854698181
 C          4.1805280994       -0.2692877941       -0.9106261965
 C          5.1403513470        0.2567979673       -0.1267289072
 C          6.6314575363       -0.0025813442       -0.0628257995
 C          7.2441216643       -1.2152548125       -0.7580847949
 C          6.8608243740       -2.5627030271       -0.1465155542
 H          7.3434857265       -2.6498755196        0.8302401251
 H          7.2581510352       -3.3544501905       -0.7852462742
 C          5.3655479402       -2.7930774157        0.0585083905
 H          4.9740591064       -2.0584708139        0.7653222550
 H          5.2383151950       -3.7777621624        0.5166763043
 C          4.5175499253       -2.7599469974       -1.2113154139
 H          3.5080018416       -3.0823954937       -0.9413004185
 H          4.9138318487       -3.4734704395       -1.9364976372
 C          4.3966417818       -1.3856411535       -1.8913175030
 H          3.5099604810       -1.4043816694       -2.5318096780
 H          5.2550550215       -1.1818558224       -2.5267547622
 H          8.3287731004       -1.1098670868       -0.6688536360
 H          7.0130209149       -1.1970629380       -1.8189891478
 H          6.8827567878       -0.0357409824        1.0021580216
 H          7.1052907206        0.9011437883       -0.4617680585
 O          4.8694726030        1.2385646608        0.7843714099
 C          3.5922083017        1.7351099549        0.9698799608
 O          3.5016865581        2.6100581723        1.8554055480
 O          1.8852596257       -0.2534488346       -1.5184041300
 C          1.1684758943        1.7807259434        0.3787781736
 C          0.2036928765        0.6684034958        0.7138797581
 C          0.5658732368       -0.2748331039        1.6718996531
 C         -0.2919702494       -1.3021631533        2.0138599747
 C         -1.5339372085       -1.4111710824        1.4132933975
 C         -1.9132715386       -0.4667250670        0.4704702158
 C         -1.0500906066        0.5695753410        0.1322380022
 H         -1.3607767732        1.2956680770       -0.6029295463
 N         -3.1699437725       -0.5716773830       -0.1504179320
 S         -4.4889365667       -0.9797432812        0.8223582552
 O         -4.4490190599       -0.2232702867        2.0538735077
 O         -4.5271015711       -2.4135706694        0.9664998097
 C         -5.8435860087       -0.4356701585       -0.1997720964
 C         -6.3820703580        0.8200674530        0.0087040998
 C         -7.4169231890        1.2493673678       -0.8072068952
 C         -7.8905151286        0.4215849692       -1.8141047025
 C         -7.3394336473       -0.8359672968       -2.0112183515
 C         -6.3051498462       -1.2720723887       -1.1984407819
 H         -5.8521269496       -2.2433983033       -1.3092514841
 H         -7.7122982244       -1.4769824209       -2.7937052020
 H         -8.6960990509        0.7579385190       -2.4475206188
 H         -7.8490256608        2.2252960424       -0.6548092698
 H         -5.9884549324        1.4259839213        0.8091223790
 H         -3.3754185358        0.2243442897       -0.7385047655
 H         -2.2135934633       -2.2081873918        1.6693055244
 H          0.0080723741       -2.0283836428        2.7549740684
 H          1.5360319817       -0.1935931744        2.1442838618
 H          1.2293409820        2.4499005663        1.2500679719
 C          0.7623349792        2.5945941513       -0.8330258810
 C         -0.1703923277        3.7586838564       -0.6888794123
 C          1.2831779035        3.9927098715       -0.9680828041
 H          1.5723537373        4.3432887959       -1.9474128126
 H          1.9072448671        4.3663806099       -0.1691387439
 H         -0.8782716928        3.9549924596       -1.4803063077
 H         -0.5379054178        3.9858975936        0.3005933953
 H          0.7022716191        1.9939625380       -1.7335543015
