  62
        -98.93819467
 C         -1.5124642759       -0.9897421226        0.8974099468
 C         -2.1135468788       -0.4013944265       -0.2424072306
 C         -2.5379465258        1.0056955770       -0.1099686216
 C         -2.2643078367        1.6784286812        1.0192362884
 C         -2.6209987065        3.0948013691        1.3995667504
 C         -2.5288525017        4.1765716990        0.3181415547
 C         -1.3660552449        4.0100884422       -0.6710713607
 H         -0.8040980220        4.9448936014       -0.7231134512
 H         -0.6756140430        3.2357512456       -0.3300539365
 C         -1.8300307956        3.6568944917       -2.0853562364
 H         -2.7017722176        4.2646168452       -2.3406763479
 H         -1.0311735459        3.9099017498       -2.7867902695
 C         -2.1593763459        2.1804013616       -2.2930814888
 H         -1.2417188917        1.5928917153       -2.1972600747
 H         -2.5220009582        2.0520024453       -3.3163303147
 C         -3.1994779856        1.5972570677       -1.3212666533
 H         -3.9461274258        2.3406951880       -1.0504713278
 H         -3.7024875453        0.7674173112       -1.8256158870
 H         -3.4646546776        4.2184149665       -0.2375152164
 H         -2.4297240288        5.1312130791        0.8383073041
 H         -3.6358533079        3.0870793784        1.8097143694
 H         -1.9460406874        3.3456019706        2.2220323071
 O         -1.6082324074        1.0957721646        2.0642694733
 C         -1.2134888207       -0.2312413546        2.0289972148
 O         -0.6053614957       -0.6073205606        3.0517983201
 O         -2.3179415981       -1.0142203859       -1.3213175108
 C         -0.9830373141       -2.4164870847        0.8794462765
 C         -0.1471027813       -2.5819592933       -0.3654970433
 C         -0.3673888461       -3.5338427831       -1.3500741693
 C          0.4155793817       -3.5425283506       -2.4924562651
 C          1.4058455225       -2.5970379182       -2.6862238734
 C          1.6386955870       -1.6449385945       -1.6991594627
 C          0.8894601714       -1.6727111869       -0.5371303688
 H          1.0699877664       -0.9368098037        0.2325160305
 N          2.6280921439       -0.6620651765       -1.8475591645
 S          2.4183471685        0.8494709832       -1.1578055331
 O          1.0333029346        1.2506902137       -1.1149911191
 O          3.3058032970        1.7085503601       -1.9149783374
 C          3.0751511528        0.6574524715        0.4852087145
 C          2.3115569288        1.0044460225        1.5810485255
 C          2.8423300867        0.8401085332        2.8506549558
 C          4.1265006786        0.3401252330        2.9999838181
 C          4.8863451948        0.0053278647        1.8887587104
 C          4.3580787138        0.1633878192        0.6181082678
 H          4.9146240445       -0.0845373833       -0.2701557717
 H          5.8850192551       -0.3819427250        2.0107857234
 H          4.5344745635        0.2103968891        3.9899555215
 H          2.2404519752        1.0893912047        3.7100432897
 H          1.3098634151        1.3786431079        1.4295291116
 H          3.0530740954       -0.6120042108       -2.7615317534
 H          1.9870673626       -2.5848101081       -3.5957531495
 H          0.2327472868       -4.2816284739       -3.2579162378
 H         -1.1700614460       -4.2446689364       -1.2414340186
 H         -0.3058665709       -2.4729697162        1.7482814779
 C         -2.0279066154       -3.5020331268        1.0766452435
 C         -3.2835525248       -3.2259987405        1.8478007548
 C         -3.3516247335       -3.4949076931        0.3758984087
 H         -3.7595842820       -4.4404701825        0.0490245319
 H         -3.5593025772       -2.6747050153       -0.2917857330
 H         -3.6454906658       -3.9811391034        2.5293752831
 H         -3.4443428749       -2.2135164798        2.1898180477
 H         -1.5706330723       -4.4734651862        1.2389430765
