  62
        -98.93974488
 C          1.9677981299        0.8416713401        0.2044297592
 C          2.0932407197       -0.5627506500        0.0308866699
 C          3.3641306095       -1.0468205805       -0.5211813400
 C          4.3113080196       -0.1540029108       -0.8605266806
 C          5.6715680295       -0.5020261613       -1.3902694606
 C          6.6920572596       -0.6431574309       -0.2523438406
 C          6.2174191296       -1.5349704202        0.8949371899
 H          7.0297368297       -1.5877962400        1.6231177298
 H          5.3712735097       -1.0553876998        1.3923615497
 C          5.8170639094       -2.9550796404        0.4712426906
 H          6.2357219792       -3.1806435909       -0.5101885493
 H          6.2491138393       -3.6658767101        1.1788588309
 C          4.3086409693       -3.2096515602        0.4495713709
 H          3.8709251295       -2.8952843596        1.4004135108
 H          4.1478474291       -4.2869517902        0.3558162815
 C          3.5323236993       -2.5311106506       -0.6862759393
 H          4.0053855291       -2.7607306411       -1.6432406393
 H          2.5210235692       -2.9476092305       -0.6928773790
 H          7.6189684195       -1.0432140812       -0.6674232505
 H          6.9011718498        0.3505513093        0.1505551489
 H          5.6090950193       -1.4309817215       -1.9537599801
 H          5.9947876795        0.2974538784       -2.0590908010
 O          4.1452741698        1.1830354293       -0.7161841712
 C          2.9815875500        1.7192934297       -0.1810774814
 O          2.9988339602        2.9647229898       -0.1204585320
 H         -1.8322846502        0.3947033108        0.4686292699
 C         -1.5905201601        1.1473146804       -0.2660241905
 C         -0.3354081300        1.7390915502       -0.2475993010
 C         -0.0370897600        2.7168960897       -1.1895726715
 C         -0.9829464201        3.0913572393       -2.1264394416
 C         -2.2388954902        2.5115344895       -2.1328793111
 C         -2.5478033202        1.5319572900       -1.1948171306
 N         -3.8066539103        0.9189000802       -1.2122944701
 S         -4.6028369002        0.3102011010        0.1221674603
 O         -6.0016973902        0.6100707611       -0.0965697597
 O         -4.0348437700        0.8052163615        1.3536423299
 C         -4.3870355305       -1.4587769291        0.0228996911
 C         -3.2503956306       -2.0069817095       -0.5363915388
 C         -3.1206114208       -3.3874988996       -0.5704789481
 C         -4.1215397209       -4.1932742092       -0.0512720276
 C         -5.2593095207       -3.6281305987        0.5043190723
 C         -5.3938907605       -2.2499390787        0.5432980416
 H         -6.2647031604       -1.7693310983        0.9590017815
 H         -6.0391012208       -4.2548612484        0.9062473627
 H         -4.0138582511       -5.2660486492       -0.0812010171
 H         -2.2324179910       -3.8230125899       -0.9999541680
 H         -2.4781222706       -1.3695318098       -0.9356636992
 H         -4.4563577603        1.2939606400       -1.8863217503
 H         -2.9774327902        2.8119189293       -2.8605456812
 H         -0.7425038300        3.8507742590       -2.8552839520
 H          0.9376507001        3.1797706295       -1.1780515318
 C          0.6622132500        1.3265841906        0.8087603391
 H          0.2432715100        0.4533196709        1.3279405196
 C          0.8219178703        2.4454112610        1.8207480085
 C         -0.3086111995        2.7278098617        2.7629911085
 C          0.9583957004        2.1113728817        3.2742913887
 H          1.6175033306        2.7137218819        3.8813942583
 H          0.9399532903        1.0676890619        3.5530299692
 H         -1.1908173396        2.1077920618        2.6920269690
 H         -0.5189097394        3.7552524318        3.0184130981
 H          1.3872538904        3.2882685908        1.4452943581
 O          1.1780175396       -1.3756949298        0.3306182404
