  62
        -98.94520519
 C         -2.0922126161       -1.4645544758       -0.0155371254
 C         -1.8941333101       -0.4624693497       -0.9960835812
 C         -2.7969383784        0.6964046667       -0.9194841363
 C         -3.7169193944        0.7587500681        0.0597025854
 C         -4.6446315939        1.9142133907        0.2956899865
 C         -4.0219138454        2.9389811031        1.2546266064
 C         -2.5974488357        3.3516561317        0.8823638659
 H         -2.2802822980        4.1028208909        1.6087406790
 H         -1.9338631116        2.4913380142        0.9964231887
 C         -2.4528769097        3.9162937095       -0.5376150785
 H         -3.4301273330        4.2152659987       -0.9184362228
 H         -1.8343847612        4.8151485260       -0.4990057385
 C         -1.7918264512        2.9606198583       -1.5322004538
 H         -0.8584851424        2.5796404774       -1.1111412343
 H         -1.5418984696        3.5267152497       -2.4333209431
 C         -2.6421201500        1.7617228128       -1.9685082916
 H         -3.6197881603        2.1057784852       -2.3123231448
 H         -2.1318942523        1.2824470215       -2.8090968631
 H         -4.6642208657        3.8212891551        1.2784805473
 H         -4.0025958819        2.5061850254        2.2575180240
 H         -4.8790719560        2.3867468710       -0.6562257319
 H         -5.5663428290        1.5307779484        0.7365880682
 O         -3.8718425833       -0.2178145664        0.9894787109
 C         -3.0708676190       -1.3449180202        0.9762070588
 O         -3.3234677430       -2.1622089431        1.8838790610
 H          0.9365956126       -1.8180232475       -1.3457774912
 C          1.1347132246       -1.9185392379       -0.2904108525
 C          0.1324399062       -2.3721927863        0.5539635272
 C          0.3953227877       -2.4516948585        1.9180567298
 C          1.6370742299       -2.1045814221        2.4180687160
 C          2.6391434025       -1.6634534415        1.5714587501
 C          2.3783754601       -1.5554935575        0.2113915424
 N          3.3799917567       -1.1061654794       -0.6673096367
 S          4.2820072551        0.2541801890       -0.3111124485
 O          4.9948296978        0.5587388534       -1.5301559329
 O          5.0920062004       -0.0042363567        0.8531771766
 C          3.1107289521        1.5511102552        0.0436459684
 C          2.6901758559        2.3598393811       -0.9935379467
 C          1.7695569753        3.3614077262       -0.7333460644
 C          1.2748577291        3.5263460933        0.5516082780
 C          1.7005780303        2.7011843043        1.5804638794
 C          2.6309046436        1.7051612521        1.3288971389
 H          2.9956296585        1.0575180522        2.1086192010
 H          1.3127858744        2.8307862000        2.5782371046
 H          0.5528754071        4.3020109200        0.7520040155
 H          1.4384711956        4.0066073897       -1.5312147378
 H          3.1025409971        2.2012232674       -1.9769719578
 H          3.0800122289       -1.0799321756       -1.6312090161
 H          3.6156914640       -1.4004319356        1.9445999510
 H          1.8303034902       -2.1827115136        3.4774187714
 H         -0.3898583801       -2.7829046912        2.5831820662
 C         -1.2415452577       -2.7252054351        0.0371734213
 H         -1.7209832682       -3.3741218188        0.7818448296
 C         -1.2109244153       -3.4585060604       -1.2883597212
 C         -0.7322925338       -4.8777207668       -1.3219772271
 C         -2.1843214072       -4.5708735503       -1.5301954721
 H         -2.6001043915       -4.6853174485       -2.5201309570
 H         -2.8766251777       -4.8121565110       -0.7365988614
 H         -0.4384821890       -5.3265250467       -0.3849947547
 H         -0.1488439657       -5.2064301962       -2.1683624197
 H         -0.9717311988       -2.8245948554       -2.1319739606
 O         -1.0195006280       -0.5162472431       -1.9009657277
