  62
        -98.94040603
 C          2.0625924494       -1.0170945516       -0.1037334976
 C          2.3547500595        0.3688503978       -0.1620190439
 C          3.7139336658        0.7138766115       -0.6074516938
 C          4.5710033548       -0.2531956724       -0.9773677876
 C          5.9791008324       -0.0536110388       -1.4682704036
 C          7.0153645723        0.0953091599       -0.3458997911
 C          6.9696233789        1.4237450696        0.4103281283
 H          7.8784178727        1.4805622947        1.0128085102
 H          7.0003923364        2.2479455339       -0.3030572783
 C          5.7546279538        1.5857511706        1.3345150513
 H          5.3017140493        0.6081427369        1.5153597553
 H          6.0824004785        1.9697473879        2.3032067805
 C          4.6813979908        2.5393835440        0.8089956876
 H          5.0881173839        3.5513212281        0.7486422809
 H          3.8542695034        2.5530445795        1.5236676181
 C          4.1148716113        2.1576004006       -0.5649877006
 H          4.8437629800        2.3742142807       -1.3456640933
 H          3.2187677474        2.7565658661       -0.7461388080
 H          8.0038835486       -0.0055735956       -0.7998458382
 H          6.8882646215       -0.7297413806        0.3589307465
 H          6.2319164020       -0.9393706640       -2.0550969825
 H          6.0196890532        0.8186341433       -2.1213365917
 O          4.2313956679       -1.5695696512       -0.9657067987
 C          2.9857949500       -1.9809269923       -0.5211748618
 O          2.8181333192       -3.2164666698       -0.5538228451
 O          1.5458386129        1.2825346604        0.1408988066
 C          0.7139700031       -1.5442955744        0.3593467926
 C         -0.3984734638       -0.7957306562       -0.3305534296
 C         -0.6526580765       -1.0556514855       -1.6737774665
 C         -1.6505953739       -0.3783517658       -2.3492067151
 C         -2.4151132718        0.5740450869       -1.6991575957
 C         -2.1668873892        0.8423268715       -0.3596202429
 C         -1.1741109556        0.1497372440        0.3211695485
 H         -0.9761970542        0.3839152605        1.3554169236
 N         -2.9362191616        1.8124785258        0.3037153225
 S         -4.5946706510        1.7781763655        0.1088997199
 O         -4.9538397610        2.3680186670       -1.1566662624
 O         -5.1296889566        2.4289841006        1.2841463584
 C         -5.0136151210        0.0436909849        0.1094346871
 C         -4.7775261064       -0.6775690571        1.2633278940
 C         -5.0489326866       -2.0356939732        1.2728503837
 C         -5.5465417503       -2.6477374863        0.1323069831
 C         -5.7821693102       -1.9094167219       -1.0166698604
 C         -5.5117406582       -0.5501648924       -1.0318464301
 H         -5.6800241183        0.0601053842       -1.9040262715
 H         -6.1715141165       -2.3876625871       -1.9009695482
 H         -5.7527703063       -3.7064159130        0.1409711775
 H         -4.8691719914       -2.6122987920        2.1660466873
 H         -4.3976986803       -0.1681988891        2.1343957402
 H         -2.6724797308        1.9602846805        1.2661531230
 H         -3.1858636483        1.1255777927       -2.2127185349
 H         -1.8326059959       -0.5888305006       -3.3921904883
 H         -0.0475788107       -1.7916874916       -2.1856898935
 H          0.6850827244       -2.5877396766        0.0069746793
 C          0.5490842278       -1.5955076660        1.8715020988
 C          1.7054206414       -1.9678122217        2.7496224777
 C          1.1477480535       -0.5783960111        2.7940635475
 H          0.5818426041       -0.2834668574        3.6661889126
 H          1.7228987911        0.2231034340        2.3585314743
 H          1.5268589567       -2.6240180666        3.5880212810
 H          2.6624893225       -2.1209785980        2.2720359777
 H         -0.4188515244       -1.9981101767        2.1546933365
