  62
        -98.93073525
 C         -2.2193398664       -1.0226052514        0.1450039856
 C         -3.5976292645       -1.1163414745       -0.1897889169
 C         -4.4759180489       -0.0577868809        0.3186876400
 C         -3.9539350910        0.8970902398        1.1089529616
 C         -4.7092024968        2.0804666341        1.6396673199
 C         -4.6082677504        3.2762827651        0.6822194144
 C         -4.9198926190        2.9308153333       -0.7741641494
 H         -4.1480890728        2.2561963835       -1.1523684556
 H         -4.8464054829        3.8561040513       -1.3498908796
 C         -6.3009916380        2.2980048169       -0.9957025538
 H         -6.7694196471        2.7750662160       -1.8590860845
 H         -6.9390966775        2.4910561988       -0.1327029719
 C         -6.2720301851        0.7947571031       -1.2780340204
 H         -5.5600949453        0.5869943286       -2.0807571167
 H         -7.2621393246        0.4959119632       -1.6322082609
 C         -5.9234727378       -0.1007030647       -0.0825469092
 H         -6.1226649568       -1.1364497097       -0.3723316902
 H         -6.5650401530        0.1495587514        0.7645938078
 H         -3.5906242255        3.6716094825        0.7294487463
 H         -5.2914090043        4.0542350745        1.0281683713
 H         -5.7519075941        1.8038672519        1.7838531692
 H         -4.2787509285        2.3595309930        2.6028714616
 O         -2.6519974024        0.9056272383        1.4849973864
 C         -1.7461362043       -0.0484234472        1.0234486291
 O         -0.6051226344        0.0958264873        1.5024116074
 H          1.0183148547       -0.5972770953       -0.5631010778
 C          1.0823581857       -1.4774619387        0.0480936242
 C         -0.0149482863       -2.3113065487        0.2125191796
 C          0.1125531551       -3.4048014407        1.0634455061
 C          1.2934098053       -3.6452063559        1.7420890796
 C          2.3752790051       -2.8001957944        1.5847826299
 C          2.2659369704       -1.7074830584        0.7314612756
 N          3.3787440844       -0.8693900717        0.5176963442
 S          3.2695384905        0.8081387064        0.3826542913
 O          3.0690398740        1.4087877086        1.6840990467
 O          2.3432282481        1.1696000222       -0.6585575956
 C          4.9331954880        1.1417021433       -0.1718386488
 C          5.2441316426        0.8867904417       -1.4938018481
 C          6.5372027745        1.1160999282       -1.9356748955
 C          7.4942673832        1.5937098692       -1.0525406314
 C          7.1674709252        1.8476297454        0.2707027233
 C          5.8754834498        1.6190959917        0.7184020854
 H          5.5736940034        1.8101739204        1.7357300807
 H          7.9122899327        2.2222964497        0.9542565082
 H          8.5000755549        1.7718150443       -1.3987983692
 H          6.7936095911        0.9218763238       -2.9647055645
 H          4.4658632915        0.5245509402       -2.1451452311
 H          4.1286940091       -1.0766336387        1.1652998714
 H          3.2955208433       -2.9793278956        2.1207484236
 H          1.3686618978       -4.4936242655        2.4055974890
 H         -0.7326920022       -4.0641205960        1.2048210687
 C         -1.3284307627       -2.0903249300       -0.4848839204
 H         -1.9057464518       -3.0244299102       -0.3803731463
 C         -1.2666246625       -1.8450999171       -1.9956661442
 C         -0.6466269347       -0.6452593230       -2.6451225757
 C         -0.0404647399       -2.0034649171       -2.8389150637
 H         -0.1461624036       -2.4759994960       -3.8041423039
 H          0.8940150009       -2.2141869452       -2.3425454314
 H         -0.1326498680        0.0817491379       -2.0340064932
 H         -1.1758855953       -0.1965696972       -3.4744539030
 H         -2.1988361433       -2.1686010753       -2.4481587048
 O         -4.0709234314       -2.0563811675       -0.8834821022
