  62
        -98.94269351
 C         -1.3595780987       -1.5736086285        0.3190391362
 C         -1.9355433632       -1.0799084142       -0.8775433983
 C         -2.9387009368       -0.0146894974       -0.7141227974
 C         -3.2078046847        0.4631133876        0.5140275241
 C         -4.1759624518        1.5710196793        0.8108392472
 C         -3.4914108488        2.9442902046        0.7899445254
 C         -2.6299285060        3.1873144845       -0.4489990692
 H         -1.7833966460        2.4966261386       -0.4357092757
 H         -2.2233040262        4.1978666416       -0.3719277162
 C         -3.3785390026        3.0453977059       -1.7813994340
 H         -3.1038389488        3.8805708019       -2.4292456469
 H         -4.4542607534        3.1073464928       -1.6128138851
 C         -3.0609889823        1.7623260742       -2.5508310196
 H         -1.9776147216        1.6494425377       -2.6446136504
 H         -3.4653898185        1.8625475085       -3.5617782516
 C         -3.6334811619        0.4696337266       -1.9562779161
 H         -3.5025456920       -0.3221092973       -2.7000607317
 H         -4.7030373711        0.5934944380       -1.7735118404
 H         -2.8541451532        3.0245367184        1.6726764747
 H         -4.2626679355        3.7138673641        0.8551170635
 H         -4.9809829254        1.5445783750        0.0785872751
 H         -4.5966561582        1.4001931432        1.8031993595
 O         -2.5951456410        0.0034299347        1.6337083740
 C         -1.6804306429       -1.0335461936        1.5675624702
 O         -1.2267174280       -1.3873790307        2.6731634452
 H          0.4929600470       -0.4810316334       -1.0058006886
 C          1.3091294169       -1.1191676311       -0.6983712295
 C          1.0443368704       -2.2963347910       -0.0173562893
 C          2.1204757211       -3.0943301519        0.3604163912
 C          3.4194947028       -2.7233654457        0.0646195183
 C          3.6782766798       -1.5423801228       -0.6099468072
 C          2.6129183960       -0.7404926403       -0.9908794856
 N          2.8755695706        0.4926584883       -1.6348647797
 S          3.4568314455        1.6877384834       -0.6120187805
 O          3.5143277142        2.8959975469       -1.4015302570
 O          4.6981091252        1.2323004801       -0.0422127210
 C          2.2159131113        1.8482029588        0.6603331226
 C          1.3149358987        2.8914776159        0.5900519841
 C          0.3101879087        2.9747476844        1.5406585115
 C          0.2050415085        1.9998643957        2.5205497008
 C          1.1138136584        0.9545708097        2.5751821815
 C          2.1359380210        0.8796488580        1.6423890560
 H          2.8685541096        0.0894158254        1.6686541401
 H          1.0117535294        0.1883761506        3.3270021725
 H         -0.5916969840        2.0438417034        3.2468046083
 H         -0.3896816366        3.7942818374        1.5103673651
 H          1.4234818367        3.6202513571       -0.1973904198
 H          2.0724155553        0.8532545116       -2.1319071704
 H          4.6833226054       -1.2185245408       -0.8245090374
 H          4.2408197523       -3.3541414089        0.3680646759
 H          1.9332189287       -4.0099555557        0.8994791505
 C         -0.3642686207       -2.7172611175        0.3368190964
 H         -0.3443911564       -3.0761618844        1.3757428189
 C         -0.7975940737       -3.8680090512       -0.5561735171
 C         -0.5529798304       -5.2850427241       -0.1383142461
 C         -1.9455770560       -4.7316738237       -0.1308879984
 H         -2.6454550788       -5.0647639932       -0.8822072954
 H         -2.4023062100       -4.5154583009        0.8244145272
 H         -0.0830434883       -5.4598915620        0.8175429129
 H         -0.2890693691       -6.0054652372       -0.8972534531
 H         -0.7231808426       -3.6331593489       -1.6105863851
 O         -1.6400124873       -1.4894874268       -2.0317445432
