  62
        -98.94903673
 C          0.8830401817        1.3532924989        0.2318548483
 C          1.4462643440        0.2871041601        0.9694795567
 C          2.2760713966       -0.6540651812        0.2062294737
 C          2.3931858297       -0.4950555304       -1.1248868963
 C          3.2153803201       -1.3748650232       -2.0216238541
 C          4.6397785217       -0.8282417963       -2.1893136007
 C          5.3204834070       -0.4712388819       -0.8678477618
 H          4.7929370148        0.3704847341       -0.4133691460
 H          6.3299783957       -0.1284679713       -1.1046653940
 C          5.3950749965       -1.6269856742        0.1395991453
 H          6.3982097042       -1.6504410515        0.5703741409
 H          5.2411409742       -2.5762999139       -0.3746110651
 C          4.4120518535       -1.5158558913        1.3063782108
 H          4.4950442935       -0.5251967437        1.7600395723
 H          4.7016579804       -2.2486964403        2.0640609474
 C          2.9367020405       -1.7683141936        0.9690073841
 H          2.3912050551       -1.8402298292        1.9143709396
 H          2.8379686858       -2.7162949658        0.4351981831
 H          4.5938248955        0.0717878527       -2.8068440725
 H          5.2352340598       -1.5738310128       -2.7195490595
 H          2.7284203377       -1.4138834771       -2.9980428723
 H          3.2471763428       -2.3803294759       -1.6054976767
 O          1.8072912501        0.5214525527       -1.8064696988
 C          1.0401744852        1.4705764756       -1.1499227934
 O          0.5725920991        2.3573923184       -1.8900358305
 O          1.2588484330        0.1256150181        2.2061037386
 C         -0.0037400614        2.3556094195        0.9490668543
 C         -1.3870330319        2.3103374045        0.3483653240
 C         -2.1287121988        3.4399712880        0.0298140618
 C         -3.3693861007        3.3133116067       -0.5715949728
 C         -3.8843170526        2.0687214946       -0.8831347663
 C         -3.1562210330        0.9312184644       -0.5514611129
 C         -1.9367996774        1.0608164946        0.0896957591
 H         -1.3768145617        0.1738765376        0.3484965626
 N         -3.6418598517       -0.3525198522       -0.8391015928
 S         -2.5748529855       -1.5879103381       -1.2077722480
 O         -1.4033046548       -1.1193027159       -1.9108835200
 O         -3.3897685590       -2.5563830479       -1.9139136239
 C         -2.1338103647       -2.2723885186        0.3744402870
 C         -3.1372946406       -2.4975033576        1.2962883625
 C         -2.8095696597       -3.0679124065        2.5153529003
 C         -1.4933760058       -3.4100069289        2.7866714443
 C         -0.4992429126       -3.1836651804        1.8480637253
 C         -0.8193383151       -2.6069194488        0.6292755017
 H         -0.0716162628       -2.3947960763       -0.1203480550
 H          0.5244469756       -3.4466293775        2.0598201712
 H         -1.2376668913       -3.8543579368        3.7355950243
 H         -3.5793136136       -3.2439137010        3.2493668882
 H         -4.1480880840       -2.2219776816        1.0462685247
 H         -4.4720410262       -0.3801971132       -1.4128293375
 H         -4.8359023959        1.9736871244       -1.3834966571
 H         -3.9340507670        4.1987388038       -0.8215820240
 H         -1.7299998661        4.4196115588        0.2363442523
 H         -0.0636278541        2.0032361317        1.9898462845
 C          0.6201947699        3.7349589406        0.9332476962
 C          0.3504999780        4.7015713474        2.0466469682
 C          1.6961157233        4.0538585898        1.9263572549
 H          2.5336718617        4.6541653861        1.6040465910
 H          1.9591179899        3.2822794549        2.6351550152
 H          0.2660853947        5.7511657481        1.8086076276
 H         -0.2978034000        4.3753072045        2.8455365329
 H          0.7343685392        4.1259475613       -0.0717771222
