  62
        -98.94329761
 C         -2.5121270856       -1.0387119403       -0.1597000291
 C         -3.6580143506       -0.8885589688        0.6579522653
 C         -4.6988162955        0.0064352518        0.1410547295
 C         -4.5291491815        0.6090842872       -1.0500629261
 C         -5.5076203499        1.5357080762       -1.7194399781
 C         -5.4114701427        2.9921867751       -1.2446351226
 C         -5.9531023516        3.2559507571        0.1609211708
 H         -6.9630493334        2.8527235588        0.2415911428
 H         -6.0245962292        4.3390892659        0.2783907432
 C         -5.0803652603        2.6942305488        1.2919998862
 H         -4.9598920510        3.4518658475        2.0696136594
 H         -4.0828833301        2.4711870037        0.9059807625
 C         -5.6429991685        1.4417548776        1.9642644342
 H         -6.5805476986        1.6857537406        2.4687930240
 H         -4.9295482460        1.1098485937        2.7229497768
 C         -5.8943353485        0.2700323564        1.0060939415
 H         -6.7727795746        0.4676781270        0.3923038974
 H         -6.0778406742       -0.6271828703        1.6023259618
 H         -5.9799943750        3.6027136342       -1.9499236263
 H         -4.3670845217        3.3081406316       -1.2979326314
 H         -6.5230936028        1.1685470362       -1.5684974019
 H         -5.2819577752        1.5064264845       -2.7875427668
 O         -3.4200612591        0.4240133485       -1.8141849812
 C         -2.3773083225       -0.3839641964       -1.3838444804
 O         -1.4144878039       -0.4398485120       -2.1719660818
 O         -3.8022410764       -1.4730012695        1.7651621204
 C         -1.3820953510       -1.9309692405        0.3223673807
 C         -0.1295024451       -1.1077359678        0.4929336202
 C         -0.1573422559       -0.0301886357        1.3755041591
 C          0.9581793691        0.7624870591        1.5597996788
 C          2.1281194672        0.5016161015        0.8667118767
 C          2.1705635944       -0.5740865498       -0.0080850844
 C          1.0478936201       -1.3748572602       -0.1855463766
 H          1.0975962232       -2.2043170911       -0.8734575383
 N          3.3478844537       -0.8382635622       -0.7246143153
 S          4.8188068468       -0.8273706097        0.0772791026
 O          5.6914577675       -1.6542742404       -0.7273303684
 O          4.6707401220       -1.2108359981        1.4620903931
 C          5.3600224975        0.8652050106       -0.0339744805
 C          5.4018228864        1.4562153127       -1.2814851172
 C          5.8330711057        2.7689448034       -1.3855476440
 C          6.2158267605        3.4636670764       -0.2477001012
 C          6.1715765673        2.8550067767        0.9971226035
 C          5.7403151722        1.5422197074        1.1081436772
 H          5.6839561787        1.0303261520        2.0557150358
 H          6.4702567023        3.3965900375        1.8803221695
 H          6.5508734995        4.4854349336       -0.3320327136
 H          5.8677056707        3.2459045668       -2.3518971809
 H          5.0968947870        0.8833721431       -2.1414385937
 H          3.2783371058       -1.6195489795       -1.3597479071
 H          3.0010130439        1.1190835537        1.0016095937
 H          0.9186307515        1.5948622469        2.2461147218
 H         -1.0721118427        0.1762629695        1.9145221468
 H         -1.6941733124       -2.2839371985        1.3162557942
 C         -1.2181534418       -3.1291538234       -0.5877331991
 C         -0.5664293550       -4.3769121114       -0.0727696436
 C         -2.0422163198       -4.3537137117       -0.3318440323
 H         -2.4265712413       -4.9023716410       -1.1785663561
 H         -2.7115760411       -4.3341034942        0.5156196462
 H          0.0622286666       -4.9463815436       -0.7409725575
 H         -0.2301611189       -4.3771443287        0.9532195430
 H         -1.0483194244       -2.8509641883       -1.6219072592
