  62
        -98.94278345
 C          1.8155678456        1.0408070680       -0.1816213132
 C          3.1975106252        1.3191487248       -0.0219852421
 C          4.1232349526        0.2622063162       -0.4437400451
 C          3.6376184578       -0.8890571575       -0.9419852093
 C          4.4512104848       -2.0499588959       -1.4462069530
 C          4.9157087279       -3.0130887527       -0.3451433271
 C          6.0274719705       -2.4791626787        0.5588704022
 H          6.4045180193       -3.3250684068        1.1370930146
 H          6.8502736330       -2.1133426710       -0.0561538872
 C          5.5790214268       -1.3782748596        1.5302621358
 H          4.4893562691       -1.3835058138        1.6083297278
 H          5.9718408826       -1.5898925279        2.5273131444
 C          6.0410956605        0.0288966564        1.1513735957
 H          7.1309912595        0.0823261749        1.1993305852
 H          5.6374485856        0.7318850145        1.8846275785
 C          5.5910794600        0.4884848246       -0.2417028148
 H          5.7772734869        1.5621258599       -0.3251831039
 H          6.1651514883       -0.0266865044       -1.0117715938
 H          4.0522580747       -3.2899407843        0.2640279815
 H          5.2798456095       -3.9181077048       -0.8368200171
 H          3.8104754443       -2.6010217691       -2.1380459459
 H          5.3168701088       -1.6787754593       -1.9956688079
 O          2.3056743218       -1.1269144472       -1.0610323633
 C          1.3618386155       -0.1862659347       -0.6652262151
 O          0.1866260914       -0.5732947244       -0.7966293742
 O          3.6354647592        2.4003563096        0.4530703785
 C          0.8284214507        2.1117669462        0.2442662905
 C         -0.2759767118        1.5174224647        1.0819983798
 C          0.0584638245        0.9116685363        2.2913312881
 C         -0.9150908641        0.3609781775        3.1007900737
 C         -2.2460859974        0.4057390205        2.7232716864
 C         -2.5924329051        1.0102656361        1.5214235116
 C         -1.6101260772        1.5640875544        0.7096438741
 H         -1.9061880491        2.0027044674       -0.2280666845
 N         -3.9425862855        1.1095991520        1.1388769776
 S         -4.4781565065        0.5783655476       -0.3543908795
 O         -3.7536096691        1.2419319472       -1.4057398820
 O         -5.9076829643        0.8037127910       -0.3242346461
 C         -4.1654691932       -1.1781101545       -0.3598452350
 C         -5.2257104447       -2.0368867417       -0.1390364072
 C         -4.9881866680       -3.4005237842       -0.0907680843
 C         -3.6971440629       -3.8805262276       -0.2539504935
 C         -2.6450241379       -3.0041563930       -0.4684409773
 C         -2.8741222716       -1.6373151769       -0.5230001404
 H         -2.0618781613       -0.9475248790       -0.6882206254
 H         -1.6362927864       -3.3647533915       -0.5937221169
 H         -3.5089414745       -4.9420403098       -0.2141862826
 H         -5.8062533263       -4.0829152012        0.0753372096
 H         -6.2119528918       -1.6180405241       -0.0199375612
 H         -4.5891029704        0.7964269069        1.8495914053
 H         -3.0105004227       -0.0205478415        3.3553516869
 H         -0.6382826245       -0.1079895217        4.0330118082
 H          1.0989736755        0.8763656477        2.5854186160
 H          1.4174631548        2.7824734155        0.8930832952
 C          0.3102398691        2.9680282045       -0.9014423624
 C          1.1368318221        3.2150905215       -2.1269168317
 C         -0.1064168893        2.3844027676       -2.2166224889
 H         -0.9765573744        2.7957522265       -2.7077723892
 H         -0.0072084332        1.3180804277       -2.3457413657
 H          1.1295970576        4.2043988709       -2.5591932143
 H          2.0912886091        2.7138404501       -2.1983774758
 H         -0.2730229338        3.8110456737       -0.5421020967
