  62
        -98.93809940
 C         -1.8515139932       -1.2923714803        0.3613344144
 C         -1.9301919098       -0.1477625269       -0.4653394809
 C         -3.2827035845        0.3786025241       -0.7290082142
 C         -4.3519639359       -0.2405030617       -0.1948438803
 C         -5.8343253885        0.0420887402       -0.3243272543
 C         -6.3309272331        1.3763131710       -0.8753686876
 C         -6.0356695796        2.5858544219        0.0112209549
 H         -6.3430695340        3.4859799067       -0.5257027249
 H         -6.6475053002        2.5126871933        0.9140308965
 C         -4.5823833876        2.7425756103        0.4522256820
 H         -4.2957287193        1.8942163056        1.0773503995
 H         -4.5176896032        3.6373188470        1.0775862848
 C         -3.5667697266        2.8924224603       -0.6788696382
 H         -2.6057791516        3.1507935617       -0.2251870474
 H         -3.8612005971        3.7181468245       -1.3296238144
 C         -3.3480681886        1.6384776738       -1.5430852380
 H         -4.1028227409        1.5571447996       -2.3214304086
 H         -2.3765091003        1.7362582394       -2.0358903612
 H         -7.4174776117        1.2905610718       -0.9634022311
 H         -5.9467594164        1.5366746654       -1.8783894290
 H         -6.2540270991       -0.1100609172        0.6752686289
 H         -6.2362532985       -0.7614886639       -0.9515021361
 O         -4.2243437520       -1.3575637032        0.5813315365
 C         -2.9890649136       -1.9001166343        0.8873939283
 O         -3.0354141738       -2.9045981625        1.6269348406
 O         -0.9232843731        0.4134869519       -0.9664101253
 C         -0.5047223561       -1.9030701322        0.6946427253
 C          0.4131278666       -0.9013200386        1.3542955674
 C         -0.1036680494        0.0977504219        2.1731471210
 C          0.7250252146        1.0322459409        2.7657947814
 C          2.0943003107        0.9822342434        2.5716267949
 C          2.6241960909       -0.0275740684        1.7824282746
 C          1.7889518832       -0.9598298942        1.1796399947
 H          2.2202805630       -1.7334320384        0.5626065056
 N          4.0245857449       -0.0745599574        1.5852192235
 S          4.6344663726        1.0756096189        0.5266075976
 O          6.0605547966        0.8473494898        0.4713845040
 O          4.2072629830        2.3783912665        0.9652249494
 C          3.8920930303        0.6522861700       -1.0382640535
 C          4.6203010245       -0.0910177328       -1.9471413681
 C          4.0050338314       -0.5098090148       -3.1154125680
 C          2.6723288330       -0.1989083306       -3.3434129071
 C          1.9536715547        0.5438384418       -2.4194414588
 C          2.5683134647        0.9777823027       -1.2553897032
 H          2.0266559365        1.5536697081       -0.5227166725
 H          0.9093779225        0.7670127583       -2.5691115644
 H          2.1880452779       -0.5394408560       -4.2455032554
 H          4.5604736254       -1.0850524240       -3.8388311952
 H          5.6503371347       -0.3183121416       -1.7236314224
 H          4.3532851668       -0.9854905926        1.2935650038
 H          2.7540089509        1.7153118720        3.0058515238
 H          0.3003507307        1.8084715581        3.3846991531
 H         -1.1725087612        0.1442573623        2.3317688081
 H         -0.7080916734       -2.7073166366        1.4177839647
 C          0.1050393166       -2.5116537217       -0.5547195697
 C          0.9065823556       -3.7758019572       -0.4795578752
 C         -0.4638102307       -3.7917674470       -1.0854670625
 H         -0.5573444666       -3.9123971612       -2.1540450914
 H         -1.2674125203       -4.2453253375       -0.5230236801
 H          1.7556612134       -3.8880133362       -1.1373803754
 H          1.0324085259       -4.2355826006        0.4894548526
 H          0.4042925788       -1.7593137399       -1.2756793867
