  62
        -98.94015546
 C         -1.3677476972        0.9323007872        0.1316144946
 C         -2.4897898623        0.9451221480       -0.7335133142
 C         -3.5131706546       -0.0993768662       -0.5452090153
 C         -3.3214087421       -1.0191686251        0.4182263880
 C         -4.2289184716       -2.1513331786        0.8200777058
 C         -5.4376701586       -1.6785019816        1.6446225950
 C         -6.1160135902       -0.4134300849        1.1249536152
 H         -6.8738311934       -0.1194255733        1.8559276645
 H         -5.3814896732        0.3924895698        1.0772680124
 C         -6.8046921185       -0.5537215592       -0.2303657934
 H         -7.3101165104        0.3930735805       -0.4370404458
 H         -7.5694368607       -1.3309347474       -0.1646131353
 C         -5.8909234091       -0.8720351322       -1.4154559776
 H         -5.6017576206       -1.9196394743       -1.4167955055
 H         -6.4729448839       -0.7100356411       -2.3275468988
 C         -4.6549500248        0.0154623676       -1.5262832903
 H         -4.2074016492       -0.1326048110       -2.5167952207
 H         -4.9648475871        1.0665438259       -1.5056027182
 H         -5.0923899326       -1.4765112961        2.6614825925
 H         -6.1635456496       -2.4920855656        1.6904400024
 H         -4.5490654613       -2.7011537773       -0.0602377592
 H         -3.6307258655       -2.8291538801        1.4335369530
 O         -2.2253782637       -1.0006936019        1.2255161923
 C         -1.2242795077       -0.0510563739        1.1107575270
 O         -0.3021706621       -0.2027258848        1.9357793548
 H          0.8470911473       -0.4290533839       -0.3675712649
 C          1.2451522688        0.2988342565       -1.0559938517
 C          0.7380640111        1.5890303080       -1.0733794824
 C          1.2524755683        2.4961905484       -1.9935829236
 C          2.2495322615        2.1177159641       -2.8734442666
 C          2.7599701397        0.8324879240       -2.8463848582
 C          2.2498240587       -0.0845498284       -1.9342766322
 N          2.7318128215       -1.4000630219       -1.9033111774
 S          2.8753151041       -2.2248797968       -0.4545899642
 O          3.8009382632       -3.2970450264       -0.7592993598
 O          1.5781975727       -2.6338448663        0.0195942274
 C          3.6585147594       -1.0642297135        0.6493848060
 C          4.9866612727       -0.7686381866        0.4045459637
 C          5.6281255279        0.1604759967        1.2054745457
 C          4.9320622706        0.7792422167        2.2333812903
 C          3.6029599240        0.4671207856        2.4682686136
 C          2.9527561023       -0.4632763917        1.6703011409
 H          1.9148950432       -0.7133493372        1.8288015896
 H          3.0577118415        0.9439375951        3.2676800560
 H          5.4280900847        1.5063593527        2.8568046556
 H          6.6637514141        0.4006962226        1.0269702785
 H          5.4953173276       -1.2831188629       -0.3945434184
 H          3.5151752206       -1.5799911991       -2.5138685037
 H          3.5367783034        0.5332331727       -3.5329980391
 H          2.6354733530        2.8294437217       -3.5869199690
 H          0.8528518744        3.4982352857       -2.0282833386
 C         -0.3342673238        2.0184495912       -0.0973647896
 H         -0.8854053360        2.8489537438       -0.5611892311
 C          0.3215154310        2.5271496367        1.1723625257
 C          0.8312593212        3.9344324649        1.2325353486
 C         -0.3865327837        3.5441885127        2.0141524652
 H         -0.3150705794        3.4613657776        3.0880287224
 H         -1.3485436825        3.8944302166        1.6687503879
 H          1.7479086987        4.1244780710        1.7687090649
 H          0.6913891432        4.5602250203        0.3647374262
 H          0.8886485947        1.7647871013        1.6891314221
 O         -2.6430477238        1.8159661970       -1.6338118452
