  62
        -98.93306165
 C         -2.1321287448       -1.0432833827        0.1651238737
 C         -2.5249137244        0.0096519547        1.0239413909
 C         -2.6594878361        1.3506739484        0.4280350370
 C         -2.3515403555        1.5173474668       -0.8703917803
 C         -2.3910503313        2.7790186998       -1.6953742050
 C         -1.7869562269        4.0345309421       -1.0471954370
 C         -2.8315756105        5.0870761425       -0.6712581844
 H         -2.3433884727        6.0631244220       -0.6297295242
 H         -3.5808091349        5.1296569234       -1.4644039732
 C         -3.5274478108        4.8613904025        0.6697207934
 H         -2.8232211630        5.0626114433        1.4798921592
 H         -4.3348006199        5.5929353294        0.7502056324
 C         -4.1114270190        3.4625184876        0.8772398148
 H         -4.5795843489        3.1032033581       -0.0382595099
 H         -4.8985358335        3.5382216110        1.6303883607
 C         -3.0863452153        2.4351083397        1.3799160561
 H         -3.4954157290        1.8986897495        2.2421729059
 H         -2.1900310183        2.9456446147        1.7465612249
 H         -1.0991020814        4.4819717316       -1.7666656006
 H         -1.1966484955        3.7507520721       -0.1762493405
 H         -1.8446006602        2.5339248772       -2.6088880293
 H         -3.4256068480        2.9730647582       -1.9894727148
 O         -1.9582764997        0.4784554154       -1.6597004795
 C         -1.8074563771       -0.8081509366       -1.1716887584
 O         -1.4019642168       -1.6248035454       -2.0199476372
 O         -2.7538500668       -0.1618528299        2.2536281909
 C         -1.9059500759       -2.4130554559        0.7816544943
 C         -0.5307007932       -2.8988443696        0.3961543964
 C         -0.2691434334       -4.1352008040       -0.1773761866
 C          1.0230707171       -4.4758431183       -0.5401818666
 C          2.0696369130       -3.5920671647       -0.3573162794
 C          1.8185635215       -2.3546906636        0.2267305826
 C          0.5323098434       -2.0315630791        0.6194594198
 H          0.3465391228       -1.0659569302        1.0695986637
 N          2.8580653942       -1.4307818447        0.4433383089
 S          2.4964501259        0.2131677193        0.2955818640
 O          1.9266428455        0.6749926368        1.5383754075
 O          1.7209937189        0.4625622744       -0.8983706213
 C          4.1426003181        0.8769993905        0.1166318938
 C          4.9217925666        1.0306723818        1.2479774886
 C          6.2141226755        1.5118796100        1.1107833495
 C          6.7035007864        1.8288618045       -0.1478917209
 C          5.9092799620        1.6712681475       -1.2736709523
 C          4.6161175751        1.1889521963       -1.1435790965
 H          3.9585868569        1.0558582549       -1.9879867354
 H          6.2905007879        1.9213670510       -2.2505823159
 H          7.7093155859        2.2038276225       -0.2520741487
 H          6.8334472930        1.6382503229        1.9840172015
 H          4.4940380027        0.7794233176        2.2044401453
 H          3.6971061050       -1.6656453825       -0.0703584812
 H          3.0709345455       -3.8506212582       -0.6667825965
 H          1.2132651153       -5.4372687011       -0.9928041814
 H         -1.0781181393       -4.8211525599       -0.3674216025
 H         -1.9011458798       -2.2201999760        1.8685591120
 C         -3.0117880940       -3.4255829088        0.5286865842
 C         -4.4042687779       -2.9813798022        0.1967218996
 C         -3.5741045389       -3.6783111895       -0.8369285648
 H         -3.8354131366       -4.6924854152       -1.1018959194
 H         -3.1733108315       -3.0998576128       -1.6539390747
 H         -5.2321455574       -3.5135161734        0.6408545505
 H         -4.5751819209       -1.9204322317        0.0834199807
 H         -2.9298591173       -4.2853841239        1.1867615812
