  62
        -98.93949982
 C         -2.6364276863       -1.2150509791        0.2585599941
 C         -2.5079668721       -0.1782250753       -0.6991097769
 C         -3.6889426937        0.6848437041       -0.8698924265
 C         -4.7951147136        0.4512257160       -0.1423939010
 C         -6.0424692854        1.2845531268       -0.1809423730
 C         -5.9950793142        2.4018033165        0.8708817600
 C         -4.6964522983        3.2084353980        0.8579771680
 H         -4.7898499050        3.9861036341        1.6191338205
 H         -3.8704128202        2.5606706968        1.1608469981
 C         -4.3629342469        3.8539160898       -0.4942704507
 H         -5.2576803204        3.8929621343       -1.1166924018
 H         -4.0435755876        4.8836952465       -0.3209532788
 C         -3.2377770215        3.1630813332       -1.2671310986
 H         -2.3685302362        3.0368066468       -0.6165440607
 H         -2.9384908220        3.8184274268       -2.0893913362
 C         -3.5858758220        1.7981448712       -1.8741571925
 H         -4.5050381879        1.8777334108       -2.4582484033
 H         -2.7716017144        1.5185623972       -2.5491300655
 H         -6.1081749270        1.9511161794        1.8596698657
 H         -6.8422007946        3.0694392448        0.7033329087
 H         -6.8957273447        0.6369953208        0.0280554395
 H         -6.1578463908        1.7114414015       -1.1752786572
 O         -4.8830037222       -0.5561606929        0.7636865298
 C         -3.8060138466       -1.3926972734        1.0031563316
 O         -4.0093931085       -2.2438275265        1.8920586359
 O         -1.4747238084        0.0285678228       -1.3852058291
 C         -1.4895752471       -2.1594063534        0.5799600223
 C         -0.2137641650       -1.3741512737        0.7578411628
 C         -0.0928778242       -0.5374980910        1.8638849439
 C          1.0523567675        0.2088845321        2.0643603520
 C          2.1013682212        0.1404267338        1.1642293248
 C          1.9910526679       -0.6897367886        0.0577345361
 C          0.8424552224       -1.4470708232       -0.1353656356
 H          0.7618244394       -2.0720308666       -1.0112710109
 N          3.0419494416       -0.7456790112       -0.8714457270
 S          4.6088213414       -0.9533415075       -0.3186111781
 O          5.3278329073       -1.5388353589       -1.4293887573
 O          4.6381439702       -1.6913152677        0.9233498752
 C          5.2017750862        0.7051360152       -0.0567242432
 C          5.7499625046        1.0553234181        1.1615401133
 C          6.2194214010        2.3475784041        1.3389307247
 C          6.1337404605        3.2614692589        0.2999411924
 C          5.5820773026        2.8933592636       -0.9182620786
 C          5.1122504376        1.6028620729       -1.1024147691
 H          4.6790175312        1.2781443098       -2.0337439010
 H          5.5160728286        3.6071777267       -1.7235899183
 H          6.4987118284        4.2666929597        0.4402221179
 H          6.6485343192        2.6357108775        2.2851713154
 H          5.7907208867        0.3130389786        1.9428277511
 H          2.8509208337       -1.3248815377       -1.6755336968
 H          2.9958962821        0.7236650285        1.3104718580
 H          1.1292553958        0.8539179268        2.9266806296
 H         -0.9161620379       -0.4771744299        2.5634475881
 H         -1.7506942060       -2.5976951682        1.5573125115
 C         -1.3461951318       -3.3258647325       -0.3863627181
 C         -2.5548725798       -3.9525686263       -1.0130870598
 C         -1.5793067881       -3.1952226729       -1.8604025871
 H         -0.9423729482       -3.7559911567       -2.5296331350
 H         -1.8667684931       -2.2279304289       -2.2403623998
 H         -2.5892905889       -5.0281502848       -1.0999870501
 H         -3.5139655218       -3.5003735247       -0.8061783050
 H         -0.5583303334       -4.0069296600       -0.0767731095
