  62
        -98.94414079
 C          1.7266011295        1.4429724865        0.2079900929
 C          2.0173949703        0.6837444308       -0.9514101446
 C          2.8952787345       -0.4820800383       -0.7586110306
 C          3.3212588913       -0.7985225903        0.4770473887
 C          4.1798157720       -1.9815420306        0.8165604051
 C          3.3393073662       -3.2237944465        1.1436909795
 C          2.2624209380       -3.5391152713        0.1056672091
 H          1.7620074005       -4.4564559669        0.4228574705
 H          1.5102169696       -2.7485005987        0.1138769294
 C          2.7861302472       -3.7100071340       -1.3263644213
 H          2.3124668967       -4.5879931974       -1.7706230412
 H          3.8610886171       -3.8936708478       -1.3125355771
 C          2.4856139346       -2.5276493134       -2.2493517154
 H          1.4208491788       -2.2837699619       -2.1952786880
 H          2.6933694053       -2.8374174901       -3.2772761805
 C          3.2962497910       -1.2519109794       -1.9864426879
 H          4.3597464923       -1.4979847269       -1.9505383570
 H          3.1303679572       -0.5763050111       -2.8308841049
 H          4.0133418372       -4.0768906530        1.2390736788
 H          2.8505998915       -3.0701610271        2.1084839218
 H          4.8422490340       -2.1914349902       -0.0213244468
 H          4.7839762728       -1.7247866302        1.6884352925
 O          2.9812270082       -0.0785043058        1.5755090274
 C          2.2027243263        1.0618605418        1.4681767016
 O          2.0043058732        1.6447742638        2.5506114441
 H         -0.4913788010        1.2845005461       -1.6305072949
 C         -1.1231615151        1.5838971743       -0.8072153688
 C         -0.5879367178        2.3526002700        0.2158413553
 C         -1.4137934797        2.7201206708        1.2712865352
 C         -2.7404296386        2.3241770050        1.3001732851
 C         -3.2612455028        1.5294357244        0.2944084034
 C         -2.4382424656        1.1501758777       -0.7578303828
 N         -2.9244246783        0.2490796710       -1.7281758284
 S         -3.4749432044       -1.2044821383       -1.0894244829
 O         -3.0819751263       -2.2269966595       -2.0339608130
 O         -4.8912567030       -1.1004820315       -0.8386472378
 C         -2.6204197171       -1.4024806277        0.4693797259
 C         -3.3612144001       -1.5279846844        1.6268990561
 C         -2.7021206309       -1.6187781729        2.8422162004
 C         -1.3181041324       -1.5633880303        2.8807169190
 C         -0.5871458026       -1.4394570544        1.7095194140
 C         -1.2394582671       -1.3675273176        0.4897708682
 H         -0.6879029740       -1.2726181467       -0.4333988635
 H          0.4894638066       -1.3786919151        1.7472448498
 H         -0.7992704590       -1.6103536895        3.8250707658
 H         -3.2675315149       -1.7188852225        3.7545083131
 H         -4.4362818464       -1.5428617269        1.5514204349
 H         -2.2506007050        0.0686968400       -2.4600648201
 H         -4.2809931091        1.1792945625        0.3159709827
 H         -3.3704798394        2.6204883266        2.1244643706
 H         -1.0036912111        3.3013962120        2.0837511197
 C          0.8788183958        2.7090926159        0.1998264724
 H          1.1086373352        3.2254260167        1.1409721847
 C          1.2052343825        3.6420185969       -0.9498121346
 C          0.8562711635        5.0933254797       -0.8261038807
 C          2.2905008368        4.6603493972       -0.7815389721
 H          2.9253608433        4.8805747918       -1.6266212822
 H          2.8037160511        4.6919417888        0.1687507453
 H          0.3980201133        5.4215853555        0.0944923492
 H          0.5029605513        5.6140582449       -1.7028137567
 H          1.1048479311        3.1813154521       -1.9234730309
 O          1.5836070609        0.9417846955       -2.1076897780
