  62
        -98.94820164
 C         -1.2018804306       -1.2150504600       -0.0564012997
 C         -1.8982689504       -0.6252460092        1.0254582300
 C         -2.5086199502        0.6819078808        0.7572384994
 C         -2.3707947301        1.2473800101       -0.4557021410
 C         -2.9104171199        2.5883857800       -0.8738929216
 C         -4.3782432099        2.5598231701       -1.3218092415
 C         -5.3988259699        2.3769203409       -0.1979471413
 H         -5.2112939197        3.1123127113        0.5851337882
 H         -6.3822046599        2.5937386009       -0.6197576414
 C         -5.4243018901        0.9684628812        0.4120702794
 H         -6.4589240502        0.6326258015        0.5110431097
 H         -4.9237453303        0.2695939808       -0.2619359403
 C         -4.7817638101        0.8649460518        1.7954734794
 H         -5.3539354599        1.4582607823        2.5122374591
 H         -4.8214776203       -0.1793775780        2.1157494000
 C         -3.3170124100        1.3192366915        1.8460627791
 H         -2.8898056200        1.0065680419        2.8026374192
 H         -3.2560452197        2.4057366315        1.7795551485
 H         -4.5849418197        3.5102955398       -1.8189159120
 H         -4.5028847801        1.7638822497       -2.0594233111
 H         -2.7896038797        3.3011102504       -0.0573806320
 H         -2.3009713799        2.9221913394       -1.7162908619
 O         -1.6825720703        0.6534638794       -1.4662310107
 C         -1.0783903806       -0.5867910706       -1.2949172601
 O         -0.4755886008       -1.0028977013       -2.3007509999
 O         -2.0015579505       -1.1640746886        2.1608005003
 C         -0.5262540809       -2.5587856500        0.1479255409
 C          0.9643992491       -2.4083965204       -0.0339384192
 C          1.7154571589       -3.1872324910       -0.9039048989
 C          3.0797739389       -2.9852796014       -1.0220272991
 C          3.7188863392       -2.0091190811       -0.2811020897
 C          2.9784990494       -1.2309848005        0.6030761900
 C          1.6140113394       -1.4391336601        0.7226561302
 H          1.0475429495       -0.8362315197        1.4180603399
 N          3.6109216897       -0.2555977502        1.3942990994
 S          2.9608175000        1.2738373100        1.5584166586
 O          4.0198113102        2.0442424701        2.1734440782
 O          1.7136740201        1.2170737907        2.2766259888
 C          2.6987165500        1.8419493892       -0.1092794616
 C          3.7674028701        2.3739438586       -0.8047077420
 C          3.5821315101        2.7627278679       -2.1210713922
 C          2.3414073400        2.6022976278       -2.7201070120
 C          1.2790166199        2.0674615985       -2.0084671017
 C          1.4574916499        1.6841847591       -0.6889878715
 H          0.6528551299        1.2668997596       -0.1032426712
 H          0.3155630099        1.9255240684       -2.4721626815
 H          2.1975331600        2.8964335373       -3.7477742422
 H          4.4034922701        3.1844971174       -2.6776045525
 H          4.7119954401        2.4883790986       -0.2980473221
 H          4.6094147097       -0.1962766105        1.2534659293
 H          4.7823788892       -1.8516372614       -0.3765342898
 H          3.6518405987       -3.5938189119       -1.7056127588
 H          1.2333957786       -3.9491168913       -1.4934429684
 H         -0.7132960809       -2.8203456994        1.2003672511
 C         -1.1522014412       -3.6166056303       -0.7357927884
 C         -1.1060340015       -5.0584248201       -0.3295819877
 C         -2.3991047413       -4.3038006598       -0.2689443980
 H         -3.1656150114       -4.5308413900       -0.9946929978
 H         -2.7861202912       -4.0252139992        0.7006486019
 H         -0.9873376117       -5.8079594606       -1.0972372073
 H         -0.6164714115       -5.2990045097        0.6020043324
 H         -1.0804972512       -3.3767805509       -1.7904677286
