  62
        -98.92830797
 C         -1.9892673880       -0.2821349408       -0.2935587614
 C         -3.0947095127       -1.1586112421       -0.4094313200
 C         -4.3620051704       -0.7394465656        0.2174981157
 C         -4.3940496293        0.4307820752        0.8814579836
 C         -5.5670747845        1.0839547729        1.5626614452
 C         -6.5438252994        1.7298212964        0.5666189369
 C         -6.8659814856        0.8807464963       -0.6603757201
 H         -7.4746490974        1.4895497988       -1.3342752900
 H         -5.9389168532        0.6454358376       -1.1863855216
 C         -7.6317363075       -0.4094795745       -0.3770708400
 H         -7.8687025113       -0.8640079499       -1.3424770891
 H         -8.5759184922       -0.1645868154        0.1145693744
 C         -6.8986349041       -1.4513470934        0.4705090393
 H         -7.4529897445       -2.3902730495        0.3819091238
 H         -6.9146861779       -1.1822557280        1.5231747247
 C         -5.4702195143       -1.7464610780        0.0237677093
 H         -5.1294461669       -2.6594497426        0.5268106468
 H         -5.4720200059       -1.9912957671       -1.0444793148
 H         -6.0987708612        2.6643700110        0.2161914207
 H         -7.4662317922        1.9735766070        1.0964337355
 H         -5.1593339268        1.8664024578        2.2064763207
 H         -6.0783316196        0.3660253851        2.1970036611
 O         -3.2991456654        1.2349032407        0.9857866082
 C         -2.0804391381        0.9214609145        0.4055231055
 O         -1.1986411440        1.7776339239        0.5965893585
 O         -3.0318622827       -2.2593045736       -1.0223970745
 C         -0.6886635540       -0.7079346859       -0.9655788487
 C          0.4352835493       -0.6655568051        0.0356540339
 C          0.5390971706       -1.7576854398        0.8996812578
 C          1.4928319176       -1.8019756796        1.8966249110
 C          2.3959273700       -0.7632082218        2.0410363330
 C          2.3063046288        0.3280376342        1.1888701831
 C          1.3259251920        0.3832174711        0.2060381426
 H          1.2776768396        1.2710694436       -0.3965255467
 N          3.2284167241        1.3955750648        1.2785133879
 S          4.2903543181        1.5402765209       -0.0070834375
 O          5.2562815180        2.5383309117        0.3939815809
 O          3.5580143175        1.7971719344       -1.2182680056
 C          5.0765676656       -0.0601398926       -0.0989291391
 C          4.4227890129       -1.0895767143       -0.7470997494
 C          4.9948914438       -2.3519177140       -0.7449273572
 C          6.2032409752       -2.5626333545       -0.0984939702
 C          6.8486227629       -1.5182157193        0.5461449559
 C          6.2784491176       -0.2553434672        0.5529696461
 H          6.7448986556        0.5863715733        1.0391767679
 H          7.7896502877       -1.6842381441        1.0453998543
 H          6.6441233349       -3.5469845695       -0.0988857098
 H          4.4915017247       -3.1636451127       -1.2449929800
 H          3.4858403726       -0.8901935535       -1.2419466724
 H          3.7513461361        1.4056501501        2.1434311373
 H          3.1540191414       -0.7921732279        2.8094571507
 H          1.5429161107       -2.6541513631        2.5568983060
 H         -0.1603004590       -2.5746889869        0.7863177248
 H         -0.8538759738       -1.7720115963       -1.1992735518
 C         -0.5536900337       -0.0244580294       -2.3207094358
 C         -0.3337714374        1.4412362536       -2.5399823245
 C          0.7180688551        0.4547334180       -2.9523026186
 H          0.8526899932        0.2728252286       -4.0087845452
 H          1.6375512315        0.4332346583       -2.3897378600
 H         -0.9148380744        1.9288823144       -3.3105026276
 H         -0.1606834731        2.0678429230       -1.6794875835
 H         -1.2649626400       -0.4747326605       -3.0104184141
