  62
        -98.94487615
 C          2.6427257218        0.3208601801        0.0025140679
 C          2.4500954216        1.4361168338       -0.8458538424
 C          1.7635812299        2.5847628036       -0.2475313838
 C          1.3694839940        2.5295408825        1.0380676110
 C          0.6104805638        3.5990242241        1.7748886469
 C         -0.9047446906        3.5327054781        1.5329978643
 C         -1.3653089693        4.0439715150        0.1664183588
 H         -2.4468089298        4.1830110266        0.2251024388
 H         -0.9207007434        5.0212750968       -0.0263225455
 C         -1.0526468055        3.0916963497       -0.9966849343
 H         -1.9301087125        3.0062011925       -1.6433212920
 H         -0.8481623128        2.0954702427       -0.5951084001
 C          0.1131938512        3.5309719423       -1.8834425128
 H          0.2775574413        2.7602034659       -2.6412184529
 H         -0.1491574911        4.4581585514       -2.3983358991
 C          1.4355266092        3.7470839167       -1.1366931670
 H          2.2349982812        3.8338243062       -1.8769928758
 H          1.3942956396        4.6680929338       -0.5560993346
 H         -1.3874803163        4.1337872105        2.3073224152
 H         -1.2275781071        2.4956598518        1.6602789869
 H          0.7981942612        3.4382339551        2.8385593497
 H          0.9875975126        4.5841486038        1.4980126372
 O          1.6285736408        1.4630662890        1.8390331919
 C          2.2143807331        0.3153300314        1.3313276412
 O          2.3193439415       -0.6161333530        2.1533234045
 H          0.6491318190       -0.6101716115       -1.2747952745
 C          0.7978754502       -1.6039895655       -0.8687874049
 C          2.0759019967       -1.9996710264       -0.4926559086
 C          2.2413495565       -3.2805294235        0.0159667822
 C          1.1490117796       -4.1156224822        0.1876734664
 C         -0.1288761074       -3.6902903265       -0.1280049422
 C         -0.2968577933       -2.4240982744       -0.6681902469
 N         -1.6137850858       -1.9365135068       -0.9221692947
 S         -2.1691727068       -1.1536873240        0.4814069489
 O         -1.4178509401        0.0619596654        0.7084787977
 O         -2.1745829041       -2.1211359547        1.5487224281
 C         -3.8447855302       -0.7545302188        0.0195373788
 C         -4.1883924240        0.5537264054       -0.2591122459
 C         -5.4901039979        0.8368920445       -0.6432823860
 C         -6.4178876773       -0.1882443079       -0.7452262032
 C         -6.0566081546       -1.4975592874       -0.4627921171
 C         -4.7579025402       -1.7870186187       -0.0767901397
 H         -4.4316881394       -2.7859329682        0.1597942367
 H         -6.7814481857       -2.2915443916       -0.5421240634
 H         -7.4296702025        0.0349995971       -1.0447870131
 H         -5.7734283932        1.8541195901       -0.8608948253
 H         -3.4342684223        1.3185576937       -0.1619820892
 H         -1.5945298287       -1.2332014252       -1.6523409223
 H         -0.9922810435       -4.3084792513        0.0543488735
 H          1.2942292907       -5.1025564586        0.6001148753
 H          3.2237790704       -3.6170840728        0.3052340469
 C          3.1776309290       -0.9715968193       -0.5924638156
 H          3.3647353880       -0.7535042458       -1.6545559402
 C          4.4741592998       -1.3979890724        0.0583290646
 C          5.4562250400       -2.2382779987       -0.7010257192
 C          5.7594093331       -0.7974248899       -0.4241412479
 H          6.5202832817       -0.5583377143        0.3033588816
 H          5.7010677477       -0.0942378011       -1.2420255729
 H          6.0139718616       -2.9902606527       -0.1637993223
 H          5.1991652031       -2.5162267419       -1.7119084242
 H          4.3673770140       -1.5659188128        1.1240127912
 O          2.8126816286        1.4592622362       -2.0544652638
