  62
        -98.93432890
 C         -2.3867464080       -1.1867372032        0.1036768935
 C         -3.2981244906       -0.5459153452        0.9776828160
 C         -4.2014236114        0.4535796004        0.3806456143
 C         -4.0893214007        0.7294311945       -0.9301052620
 C         -4.8698367191        1.7387581453       -1.7260724788
 C         -4.1220989779        3.0814471599       -1.7871082140
 C         -4.4048379113        4.0302714580       -0.6229095445
 H         -3.7209988592        4.8767398897       -0.7196096684
 H         -5.4212926450        4.4185399523       -0.7148134827
 C         -4.2393358507        3.4218684964        0.7722378245
 H         -3.3353176934        2.8103259709        0.8023039390
 H         -4.0974618214        4.2406056239        1.4805511759
 C         -5.4502009074        2.5864846591        1.2142623577
 H         -5.7784409530        2.9196137272        2.2010935067
 H         -6.2801320019        2.7737517018        0.5333035746
 C         -5.1991839376        1.0752766876        1.3195175484
 H         -6.1530384463        0.5472533597        1.2143053843
 H         -4.8217830808        0.8384459717        2.3195746864
 H         -3.0514313757        2.8663551380       -1.8361189281
 H         -4.3947890533        3.5923969591       -2.7126191183
 H         -4.9495232117        1.3396048836       -2.7393500832
 H         -5.8688326084        1.8622992591       -1.3186929276
 O         -3.1617673701        0.1304404423       -1.7250328897
 C         -2.2855524117       -0.8300246458       -1.2418499462
 O         -1.4915540090       -1.2630726014       -2.0956000700
 O         -3.3489405502       -0.7915049515        2.2139847581
 C         -1.4546405085       -2.2280036692        0.6954897221
 C         -0.0327289577       -1.9688839513        0.2630606657
 C          0.7582383599       -2.9023302296       -0.3921566068
 C          2.0604351458       -2.5923788403       -0.7450320737
 C          2.6005964475       -1.3535812242       -0.4559165819
 C          1.8196981036       -0.4118936297        0.2019987351
 C          0.5197273831       -0.7286101858        0.5620683559
 H         -0.0886688296        0.0065356018        1.0767436926
 N          2.3581217787        0.8570777717        0.4867327848
 S          3.8061458688        0.9160139495        1.3374672291
 O          3.9531116619       -0.2286261571        2.2068984005
 O          3.8153692789        2.2136736085        1.9774296978
 C          5.0558975936        0.8846660633        0.0703484683
 C          5.0245710977        1.8661271734       -0.9008270704
 C          5.9955087351        1.8595939204       -1.8894876004
 C          6.9772271803        0.8797010665       -1.8882214168
 C          6.9971111064       -0.0962757698       -0.9036533099
 C          6.0279835387       -0.0963031837        0.0875510462
 H          5.9994238596       -0.8378514778        0.8698653184
 H          7.7613379596       -0.8567383702       -0.9042516802
 H          7.7313144944        0.8771407109       -2.6593494841
 H          5.9832342395        2.6168458331       -2.6568189695
 H          4.2472740648        2.6111094536       -0.8638263486
 H          1.6903078150        1.4973823898        0.8914569738
 H          3.6112514615       -1.1070409462       -0.7374904634
 H          2.6614179472       -3.3260052239       -1.2603103683
 H          0.3501237360       -3.8665589041       -0.6458473597
 H         -1.5075557850       -2.0519382562        1.7838106448
 C         -1.9025382736       -3.6649422089        0.4732157489
 C         -3.3485843314       -4.0015464438        0.2682619486
 C         -2.3751601066       -4.1627430244       -0.8586290853
 H         -2.1011044938       -5.1640723456       -1.1571699899
 H         -2.4055807143       -3.4566815451       -1.6732109898
 H         -3.7404876352       -4.8880608958        0.7439146451
 H         -4.0525213129       -3.1830581821        0.2237167458
 H         -1.3317984313       -4.3623451669        1.0789780928
