  62
        -98.94041208
 C          2.0703632211        1.0144095722        0.0560204216
 C          2.3671258259       -0.3667525408        0.1721331345
 C          3.7221071977       -0.6878085025        0.6469460824
 C          4.5698065987        0.2971970069        0.9904099530
 C          5.9729969683        0.1236552816        1.5046206610
 C          7.0224219184       -0.0606252755        0.3998530222
 C          6.9927706558       -1.4168561276       -0.3061901742
 H          7.0205688574       -2.2133496682        0.4381193319
 H          7.9084409174       -1.4905620022       -0.8963177874
 C          5.7890828170       -1.6215182302       -1.2366944378
 H          6.1299030114       -2.0403447009       -2.1862551266
 H          5.3325879144       -0.6544100498       -1.4600394459
 C          4.7154801497       -2.5609797696       -0.6869410166
 H          5.1275358497       -3.5671716493       -0.5826174537
 H          3.8970531556       -2.6076412531       -1.4101681660
 C          4.1303564188       -2.1299718044        0.6645248653
 H          4.8506405548       -2.3129160804        1.4616392507
 H          3.2349033138       -2.7261626105        0.8576658483
 H          8.0053418130        0.0634919558        0.8601402814
 H          6.8980650162        0.7365178329       -0.3368604623
 H          6.0107535927       -0.7238644217        2.1895827176
 H          6.2145138426        1.0317221089        2.0613390628
 O          4.2242943797        1.6104924954        0.9249525475
 C          2.9828458378        1.9984169698        0.4486068096
 O          2.8082458496        3.2333013111        0.4326308358
 O          1.5644970184       -1.2943840668       -0.1040124443
 C          0.7249953602        1.5139593893       -0.4450015199
 C         -0.3909070528        0.7752342053        0.2501365678
 C         -0.6342767023        1.0395272823        1.5946986276
 C         -1.6348586957        0.3737773064        2.2772332040
 C         -2.4152611288       -0.5695426243        1.6327205835
 C         -2.1797258716       -0.8403882971        0.2914930465
 C         -1.1819829853       -0.1612181105       -0.3957723920
 H         -0.9939611526       -0.3995982518       -1.4308861733
 N         -2.9680318101       -1.7975631369       -0.3673592930
 S         -4.6211595276       -1.7621728143       -0.1325543686
 O         -4.9549069516       -2.3939664550        1.1197288072
 O         -5.1864903410       -2.3706779135       -1.3164404466
 C         -5.0344990353       -0.0273962148       -0.0630204200
 C         -5.5620148876        0.5131022781        1.0914993385
 C         -5.8351233560        1.8712423886        1.1321518934
 C         -5.5727448305        2.6617697131        0.0244697102
 C         -5.0458164922        2.1031481264       -1.1302129670
 C         -4.7725521654        0.7461382636       -1.1767493407
 H         -4.3697208055        0.2790121802       -2.0610097620
 H         -4.8446304222        2.7204113989       -1.9910618020
 H         -5.7804395047        3.7196104691        0.0593579460
 H         -6.2472363598        2.3079013849        2.0275718648
 H         -5.7487863392       -0.1367765675        1.9307856104
 H         -2.7254652673       -1.9382673518       -1.3363648515
 H         -3.1879590717       -1.1126003491        2.1523979602
 H         -1.8070086888        0.5863515826        3.3214664108
 H         -0.0175899164        1.7692115085        2.1019353904
 H          0.6800041130        2.5673794441       -0.1250609993
 C          0.5866336224        1.5178110584       -1.9605764050
 C          1.7616649721        1.8449203059       -2.8318049275
 C          1.1874055417        0.4615769429       -2.8367579207
 H          0.6328646972        0.1425587560       -3.7077493597
 H          1.7444095940       -0.3308365248       -2.3626800701
 H          1.6042624828        2.4731604995       -3.6955315488
 H          2.7130744666        2.0036071957       -2.3448816327
 H         -0.3709106075        1.9227473278       -2.2741467266
