  62
        -98.94686444
 C         -1.1561206706       -1.1610446509       -0.1755475802
 C         -2.0143069902       -0.8287943710        0.9069181401
 C         -2.8385517402        0.3743867090        0.7453752107
 C         -2.7266022806        1.0966662192       -0.3838577992
 C         -3.5505697807        2.3069743893       -0.7138240487
 C         -4.8235881009        1.9185868195       -1.4790197784
 C         -5.6128303607        0.7822814893       -0.8287191083
 H         -6.5055754110        0.6175223195       -1.4359673280
 H         -5.0210470408       -0.1348570407       -0.8734802487
 C         -6.0259484802        1.0472438991        0.6259027019
 H         -5.9630735401        2.1145916190        0.8409594921
 H         -7.0701466002        0.7534186591        0.7522979922
 C         -5.2161940199        0.2712691089        1.6665133115
 H         -5.2026819600       -0.7892972511        1.4029405413
 H         -5.7256220296        0.3617809687        2.6296111017
 C         -3.7685305498        0.7365944688        1.8687923910
 H         -3.7527949597        1.8128173788        2.0524912912
 H         -3.3788148695        0.2298118586        2.7562270308
 H         -5.4587087910        2.8022835595       -1.5641902980
 H         -4.5408562513        1.6054737796       -2.4867041285
 H         -3.8154410803        2.8247877191        0.2061167815
 H         -2.9539758309        2.9730646594       -1.3388043188
 O         -1.8711323609        0.7711757094       -1.3821097896
 C         -1.0679730109       -0.3558232506       -1.3112704801
 O         -0.3432661513       -0.5043655705       -2.3167730204
 O         -2.0923103898       -1.5176100812        1.9582753500
 C         -0.3336522605       -2.4308068809       -0.0195675207
 C          1.0782956696       -2.1064390110        0.4030642788
 C          1.5626250700       -2.4909501013        1.6476926486
 C          2.8471306102       -2.1555980314        2.0413756782
 C          3.6704430299       -1.4194768212        1.2074689681
 C          3.1902737795       -1.0259733710       -0.0341657617
 C          1.9118897094       -1.3796760409       -0.4351939813
 H          1.5448136490       -1.0579897907       -1.3983298811
 N          3.9980601992       -0.2152004708       -0.8693486318
 S          4.1774588295        1.3496474491       -0.2942382416
 O          4.6898183191        2.1255558693       -1.4002448316
 O          4.9968184099        1.3104104688        0.8901906381
 C          2.5279519896        1.8845964490        0.1292461091
 C          2.0277916200        1.5935849988        1.3828461592
 C          0.7274415701        1.9618249588        1.6862565797
 C         -0.0430591602        2.6189126989        0.7399813301
 C          0.4720633894        2.9000059192       -0.5155904300
 C          1.7670592293        2.5217979492       -0.8295400305
 H          2.2025859290        2.7222679894       -1.7955396706
 H         -0.1330053008        3.4025717493       -1.2530979997
 H         -1.0531909501        2.9087964089        0.9827122805
 H          0.3164540605        1.7320490186        2.6563209998
 H          2.6606747403        1.0939647486        2.0978334989
 H          3.6393812789       -0.1676790906       -1.8140928417
 H          4.6619410300       -1.1210482813        1.5070685978
 H          3.2086291805       -2.4632647015        3.0107461880
 H          0.9176523503       -3.0415840614        2.3166898087
 H         -0.8097673003       -2.9802033111        0.8034568393
 C         -0.3462776010       -3.3116929807       -1.2536900309
 C         -0.0077564309       -4.7643076707       -1.1115674913
 C         -1.4173239310       -4.3480100106       -1.4046955607
 H         -1.8186584714       -4.5341983504       -2.3896007706
 H         -2.1483192808       -4.4312265908       -0.6135809605
 H          0.5623841588       -5.2389997006       -1.8952620516
 H          0.2166537494       -5.1310356309       -0.1214244714
 H         -0.0184340113       -2.8038842105       -2.1512763509
