  62
        -98.94478523
 C         -1.8676465602       -0.7269509101        0.4240763105
 C         -2.4748226404       -0.1552625298       -0.7204110392
 C         -3.5413489503        0.8187476302       -0.4530351888
 C         -3.8455414001        1.1497357399        0.8148920513
 C         -4.8909085999        2.1427741598        1.2451906718
 C         -6.3106838699        1.5636139499        1.3136517018
 C         -6.9678285402        1.2893247103       -0.0396574382
 H         -6.9072519102        2.1843581005       -0.6596515379
 H         -8.0253607002        1.0968320103        0.1517222320
 C         -6.3782618404        0.0929393005       -0.7996574286
 H         -7.1894514305       -0.5276548393       -1.1868632386
 H         -5.8013933603       -0.5280176497       -0.1104666788
 C         -5.4908674305        0.4702008508       -1.9860110786
 H         -6.0898247406        0.9779870610       -2.7452440284
 H         -5.0981482507       -0.4496164891       -2.4266229489
 C         -4.2998562704        1.3670801906       -1.6236215785
 H         -4.6413356403        2.3811921306       -1.4165476882
 H         -3.6173383705        1.3947510008       -2.4767729986
 H         -6.9296504798        2.2830799598        1.8547015921
 H         -6.2839534699        0.6418721798        1.8994266516
 H         -4.8787769300        3.0021838200        0.5740810020
 H         -4.6078151497        2.4790022496        2.2451343418
 O         -3.1978078499        0.6179291196        1.8863392211
 C         -2.2089939100       -0.3389506405        1.7189492907
 O         -1.7058983199       -0.7500062908        2.7854377405
 O         -2.1462625706       -0.4383556995       -1.9008620694
 C         -0.7755782403       -1.7693425401        0.2619890700
 C          0.3968209696       -1.1714471300       -0.4782849000
 C          1.0189172994       -1.7834238798       -1.5577693402
 C          2.0861780393       -1.1695998896       -2.1920253002
 C          2.5628633395        0.0534973202       -1.7594207500
 C          1.9623141197        0.6628788199       -0.6641021697
 C          0.8940463797        0.0471485498       -0.0312474997
 H          0.4244386799        0.5257489696        0.8198193605
 N          2.4525845598        1.8939908298       -0.1991474794
 S          4.1097876699        2.0987693697       -0.1007886596
 O          4.3093903001        3.0576723193        0.9635471606
 O          4.6297119897        2.4777525900       -1.3911944496
 C          4.7623728398        0.5032419295        0.3619859298
 C          4.2876443300       -0.0894528108        1.5153335897
 C          4.7677486300       -1.3387400809        1.8729063493
 C          5.7112830698       -1.9701060008        1.0766982590
 C          6.1831000597       -1.3588860405       -0.0742708009
 C          5.7038748897       -0.1107406304       -0.4386416005
 H          6.0382952996        0.3986733299       -1.3276912104
 H          6.9181621695       -1.8510329604       -0.6902967812
 H          6.0798172798       -2.9441496709        1.3570936887
 H          4.4003939901       -1.8149424012        2.7678566192
 H          3.5559044401        0.4261954991        2.1169275700
 H          1.9863171500        2.2402779596        0.6258253507
 H          3.3796046294        0.5521900003       -2.2556173900
 H          2.5510974292       -1.6497499894       -3.0392477304
 H          0.6616706293       -2.7359468596       -1.9120325104
 H         -0.4410494402       -2.0178144704        1.2798641999
 C         -1.3331351605       -3.0189265499       -0.3862382702
 C         -0.7202454505       -4.3552142800       -0.0971244107
 C         -2.0646761104       -4.0095222501        0.4671475196
 H         -2.9385081605       -4.4955786299        0.0597003496
 H         -2.1390839703       -3.7948280004        1.5236401197
 H         -0.6725180607       -5.0840961698       -0.8919278009
 H          0.1197981896       -4.3837813103        0.5800618192
 H         -1.7207672006       -2.8345141496       -1.3813231701
