  62
        -98.94025550
 C          1.9655009894        1.1049078049        0.5328572318
 C          2.3655294080        0.3842067071       -0.6188130659
 C          3.0812263906       -0.8750704039       -0.3663653469
 C          3.2514787059       -1.3156863187        0.8921814121
 C          3.9188227746       -2.6003110826        1.3024088431
 C          5.4489670830       -2.5134060970        1.3870224607
 C          6.1721109965       -2.4370922754        0.0418276618
 H          7.2332604599       -2.6012041093        0.2390373422
 H          5.8301727557       -3.2502550968       -0.5991866743
 C          6.0073737424       -1.0979116064       -0.6900107829
 H          5.6543987706       -0.3402386058        0.0133374239
 H          6.9787356640       -0.7636123417       -1.0610422498
 C          5.0568837744       -1.1421687081       -1.8864775628
 H          5.4659697582       -1.8006356795       -2.6558910963
 H          4.9866799082       -0.1357508232       -2.3069942185
 C          3.6365625456       -1.6133746914       -1.5471940770
 H          2.9900548727       -1.4050040757       -2.4036182883
 H          3.6291667044       -2.6873886309       -1.3610862156
 H          5.7960380440       -3.4063475947        1.9118421267
 H          5.7157384044       -1.6456016546        1.9944974335
 H          3.6339737396       -3.3960649249        0.6131551901
 H          3.5314443966       -2.8463144023        2.2935468773
 O          2.7985803102       -0.6249430573        1.9718374088
 C          2.1661940360        0.5961833992        1.8196809465
 O          1.8333236670        1.1351812951        2.8943360206
 O          2.1436608069        0.7477189289       -1.8040247447
 C          1.2354436420        2.4390914753        0.4764533455
 C         -0.2489160127        2.1954026769        0.3896758006
 C         -1.1331390362        2.7605124662        1.3001703265
 C         -2.4874459991        2.4801119381        1.2354045167
 C         -2.9840245994        1.6216428216        0.2701538716
 C         -2.1063032368        1.0508025322       -0.6414729011
 C         -0.7549367141        1.3462786822       -0.5857301399
 H         -0.0800991300        0.8959191069       -1.2994399610
 N         -2.6037591017        0.1256754798       -1.5974928014
 S         -2.7902813342       -1.4165806177       -0.9344712974
 O         -1.7403965682       -1.7097582410        0.0180221426
 O         -2.9015609860       -2.3171478675       -2.0611477086
 C         -4.3574385039       -1.3060414606       -0.1004647666
 C         -5.5069833442       -1.2654014689       -0.8655620754
 C         -6.7315577493       -1.1563517094       -0.2262204233
 C         -6.7844966341       -1.0887779482        1.1582851561
 C         -5.6209720147       -1.1318238412        1.9115664502
 C         -4.3926014044       -1.2415101657        1.2784998397
 H         -3.4611839707       -1.2749648971        1.8213574174
 H         -5.6633661410       -1.0784801976        2.9875587152
 H         -7.7383127359       -1.0025103921        1.6543626318
 H         -7.6387004114       -1.1236451941       -0.8077422644
 H         -5.4170033665       -1.3270485016       -1.9372484488
 H         -1.9873169320        0.0417222172       -2.3960878899
 H         -4.0358772025        1.3930140260        0.2158066948
 H         -3.1618507380        2.9271092935        1.9493878753
 H         -0.7481714040        3.4071569831        2.0751007626
 H          1.4361513334        2.9185180794        1.4475279382
 C          1.7642037740        3.3676722177       -0.6081285297
 C          0.9713552478        3.7770946660       -1.8096966676
 C          1.2277804490        4.7648589524       -0.7141670960
 H          1.9200649409        5.5733013124       -0.8931191247
 H          0.3976527197        5.0248001659       -0.0747054465
 H          1.5017743141        3.8826509962       -2.7438118792
 H         -0.0287009444        3.3885268069       -1.9213790619
 H          2.8315555660        3.2443062513       -0.7598427912
