  62
        -98.94437718
 C         -2.3563242917       -1.1455599786        0.2526540643
 C         -2.3491727922        0.1269775387       -0.3687691222
 C         -3.3261701027        1.0940295497        0.1493856156
 C         -4.1322246458        0.7550007047        1.1713856190
 C         -5.1599975609        1.6397372256        1.8231828616
 C         -6.5080216098        1.6780425801        1.0901745357
 C         -6.5115952437        2.4557941709       -0.2264570549
 H         -7.5555222423        2.5871958044       -0.5178489821
 H         -6.0921615672        3.4487990281       -0.0617779541
 C         -5.7632008592        1.7627778879       -1.3735952216
 H         -6.3701084253        1.8022094094       -2.2809055849
 H         -5.6192766482        0.7077076726       -1.1299579453
 C         -4.4061318791        2.3811788929       -1.7100465819
 H         -3.9482986849        1.7915458930       -2.5084123363
 H         -4.5479439091        3.3982482729       -2.0823945306
 C         -3.4238883607        2.4256341022       -0.5321277048
 H         -2.4318873546        2.6746651361       -0.9182818146
 H         -3.7230270619        3.1959723271        0.1785252947
 H         -6.8358017078        0.6520647756        0.9081813262
 H         -7.2309916717        2.1436249424        1.7638632671
 H         -4.7653435408        2.6520075523        1.9160110363
 H         -5.3242938476        1.2374325730        2.8251106824
 O         -4.0867385056       -0.4687388672        1.7615573106
 C         -3.2105140552       -1.4437140892        1.3173333263
 O         -3.2840862330       -2.5204879913        1.9422820306
 O         -1.5781579212        0.4510974274       -1.3105669784
 C         -1.3912983817       -2.2404420819       -0.1765024359
 C          0.0003992054       -1.8042464228        0.2114175498
 C          0.4126445384       -1.9577863767        1.5325014597
 C          1.6508481500       -1.5013816591        1.9422735419
 C          2.4998248409       -0.8723861161        1.0474083610
 C          2.0906269179       -0.6999011981       -0.2672088782
 C          0.8556840434       -1.1814330097       -0.6829779835
 H          0.5465402264       -1.0294371765       -1.7047100814
 N          2.9392268907       -0.0515438167       -1.1810363659
 S          3.6621295162        1.3874779541       -0.7077699129
 O          2.8643758024        2.1014170417        0.2623595621
 O          3.9555204144        2.0862126143       -1.9404721987
 C          5.1958464511        0.8610868516        0.0310810359
 C          6.0009012028       -0.0060602700       -0.6815744095
 C          7.2019938347       -0.4147013029       -0.1244257619
 C          7.5783035732        0.0508926938        1.1267326744
 C          6.7612110189        0.9243105322        1.8277903340
 C          5.5574920832        1.3357208560        1.2766209484
 H          4.8865018615        2.0075823297        1.7881243003
 H          7.0549134540        1.2857113058        2.8002610325
 H          8.5135124049       -0.2690378144        1.5583399478
 H          7.8396846349       -1.0944556820       -0.6662182235
 H          5.6732589372       -0.3431818798       -1.6506593255
 H          2.5347338206        0.0432497031       -2.1019460115
 H          3.4607297346       -0.5006261844        1.3636471490
 H          1.9583483879       -1.6308730904        2.9688825117
 H         -0.2611376920       -2.4268981283        2.2364071067
 H         -1.6513359700       -3.1226957877        0.4231257088
 C         -1.5455217198       -2.5856075495       -1.6426884836
 C         -0.9442804809       -3.8551800162       -2.1639872526
 C         -2.4317307455       -3.7278731389       -2.0347006662
 H         -3.0228179669       -3.6353608161       -2.9335942076
 H         -2.9256896641       -4.2713630564       -1.2424551168
 H         -0.5125022822       -3.8542768419       -3.1531550225
 H         -0.4266230529       -4.4861312260       -1.4575479510
 H         -1.5449962861       -1.7186416993       -2.2915728855
