  62
        -98.93895913
 C          1.9537652403        1.3671245610        0.3029389196
 C          2.5863067401        0.7227381108       -0.7851526903
 C          3.7675050402       -0.1001425291       -0.4638287803
 C          4.1702745803       -0.2119499788        0.8158336997
 C          5.3551382204       -0.9296853087        1.4283291597
 C          6.1302257003       -1.9774313589        0.6335974698
 C          5.3448474303       -3.2490066389        0.3142705902
 H          5.9598706702       -3.8766872791       -0.3342004298
 H          5.1765445604       -3.7972094588        1.2447937203
 C          3.9849666002       -3.0358866591       -0.3465382197
 H          3.5370560402       -4.0190240791       -0.5159986095
 H          3.3245621403       -2.4981826489        0.3372842302
 C          4.0151148801       -2.3027541693       -1.6864144699
 H          3.0106234200       -2.3613965394       -2.1149910798
 H          4.6992637300       -2.8120294395       -2.3679014299
 C          4.4032393301       -0.8151399593       -1.6207604602
 H          4.0256179000       -0.3293979295       -2.5252665803
 H          5.4829933601       -0.6873781393       -1.6073201704
 H          6.9858360504       -2.2650390287        1.2506727098
 H          6.5315010502       -1.5400927190       -0.2757572903
 H          6.0532147004       -0.1422403487        1.7335887395
 H          4.9826663605       -1.3847631985        2.3516693998
 O          3.5133540304        0.4174386414        1.8350456596
 C          2.3959224304        1.2027982613        1.6130490096
 O          1.8895187005        1.6831585615        2.6481228496
 O          2.1923761200        0.8315184206       -1.9749370003
 C          0.7363513002        2.2415834610        0.0645997096
 C         -0.3605598998        1.4367182709       -0.5901653501
 C         -1.0919621900        1.8848008206       -1.6818809101
 C         -2.0811288600        1.0906522405       -2.2373526899
 C         -2.3708165200       -0.1549321294       -1.7130334596
 C         -1.6622958598       -0.6018280091       -0.6040246596
 C         -0.6733172998        0.1952598910       -0.0490481099
 H         -0.1192840797       -0.1573564789        0.8128654301
 N         -1.9639878098       -1.8548900890       -0.0470709793
 S         -3.5716096397       -2.2897435190        0.1071963509
 O         -3.6124456196       -3.1891232288        1.2392514911
 O         -4.0501179999       -2.8316563093       -1.1403860289
 C         -4.4462956097       -0.7785798090        0.4771759407
 C         -5.4836493698       -0.3707905691       -0.3365860692
 C         -6.1411554398        0.8131776609       -0.0430862294
 C         -5.7485698197        1.5673739311        1.0515005404
 C         -4.7063610096        1.1427765113        1.8616611604
 C         -4.0479674796       -0.0419408787        1.5751256705
 H         -3.2364174495       -0.3983854786        2.1896471005
 H         -4.4009357495        1.7303010315        2.7126958602
 H         -6.2567715396        2.4915491812        1.2769440903
 H         -6.9533117398        1.1442796208       -0.6699138994
 H         -5.7518836199       -0.9856846293       -1.1802896191
 H         -1.4355512997       -2.0789381489        0.7825127607
 H         -3.1221823600       -0.7933197595       -2.1487887094
 H         -2.6313754901        1.4454615704       -3.0951882999
 H         -0.8801500400        2.8516019006       -2.1072858604
 H          0.3846278903        2.5484450212        1.0606481296
 C          1.1295648801        3.4790770008       -0.7149938407
 C          0.3772552001        4.7612502009       -0.5279167609
 C          1.7654303602        4.6204020210        0.0183125890
 H          2.5689098402        5.1584752609       -0.4619113012
 H          1.8899589603        4.5147818612        1.0865336990
 H          0.2287753501        5.4021771207       -1.3837799010
 H         -0.4436505098        4.7618871810        0.1729227392
 H          1.5111566900        3.2446939807       -1.7019570807
