  62
        -98.94627719
 C         -1.3648898921       -1.1160208728       -0.1129893651
 C         -2.4480255190       -1.0764923368        0.8014191959
 C         -3.2134263101        0.1755737628        0.8443498253
 C         -2.8340286904        1.2029422467        0.0625811342
 C         -3.5582480142        2.5136891091       -0.0369549670
 C         -4.6133976980        2.4810772703       -1.1517263198
 C         -5.5316575692        1.2601922362       -1.1000615342
 H         -6.2524905128        1.3606344249       -1.9144501815
 H         -4.9435101757        0.3619089820       -1.3012194080
 C         -6.2823549561        1.0860566970        0.2275348454
 H         -6.2767476735        2.0246813631        0.7829033609
 H         -7.3252317594        0.8444008212        0.0114057103
 C         -5.7414790726       -0.0332461378        1.1191121826
 H         -6.4659881445       -0.2115309265        1.9182791417
 H         -5.6611003727       -0.9565020401        0.5396529690
 C         -4.3856361037        0.2395301151        1.7826068213
 H         -4.2172408885       -0.5440976013        2.5270700232
 H         -4.4160070171        1.2013846243        2.2983105047
 H         -5.2125577838        3.3911762956       -1.0867216941
 H         -4.0990339760        2.4807600136       -2.1154302624
 H         -2.8328312751        3.2956532138       -0.2656070445
 H         -4.0303589239        2.7367332222        0.9177981876
 O         -1.7681910799        1.1420135081       -0.7727337324
 C         -1.0104084776       -0.0133322565       -0.8917864068
 O         -0.0793865545        0.0784632866       -1.7134085526
 O         -2.7616478143       -2.0457170296        1.5427949347
 C         -0.5464403970       -2.3958648199       -0.1860293546
 C          0.7997211313       -2.1092641676        0.4289966090
 C          0.9597361866       -2.2095846025        1.8080046536
 C          2.1548571257       -1.8597140365        2.4089933096
 C          3.2090658155       -1.3810494459        1.6499150472
 C          3.0519006576       -1.2638705428        0.2757401492
 C          1.8648551277       -1.6493495877       -0.3304855746
 H          1.7576111650       -1.5438887278       -1.3980417185
 N          4.1012089881       -0.7237078927       -0.5011463066
 S          4.5196049558        0.8586225392       -0.1368775069
 O          5.2875350501        1.3252300723       -1.2692027064
 O          5.1957306462        0.8770395234        1.1364395919
 C          2.9809844701        1.7528686646       -0.0191180868
 C          2.3268308211        1.8146684965        1.1947827420
 C          1.1088987668        2.4705983732        1.2641307541
 C          0.5731649024        3.0546710031        0.1273850866
 C          1.2407935175        2.9816641035       -1.0842351591
 C          2.4537367945        2.3184807141       -1.1618542222
 H          3.0030219153        2.2393306142       -2.0863672066
 H          0.8133461293        3.4258453328       -1.9685828823
 H         -0.3749860150        3.5656675060        0.1858816275
 H          0.5792895908        2.5199623460        2.2025874804
 H          2.7791688765        1.3582072674        2.0598794754
 H          3.9169956770       -0.7881543206       -1.4932028739
 H          4.1392413000       -1.0754364806        2.1012108085
 H          2.2658056763       -1.9514393603        3.4789046370
 H          0.1269603764       -2.5519290830        2.4060827196
 H         -1.0717458604       -3.1146327663        0.4565628387
 C         -0.4737786433       -2.9597936835       -1.5892627837
 C          0.0025860481       -4.3669470570       -1.7868846263
 C         -1.4411353835       -4.0273238879       -2.0005212670
 H         -1.8247278639       -4.0135532440       -3.0098052214
 H         -2.1590206963       -4.3625177355       -1.2662980735
 H          0.6121600297       -4.5901550319       -2.6491364681
 H          0.2657518618       -4.9313439364       -0.9050810444
 H         -0.2064577394       -2.2249665983       -2.3383541538
