  62
        -98.94471063
 C          1.8296312100        0.0385279104        0.0623257590
 C          2.8003657300        0.9151363908        0.6025941782
 C          4.1462385901        0.3540489010        0.7769357483
 C          4.3715707901       -0.9293797792        0.4407440791
 C          5.7063409001       -1.6114301291        0.5155133492
 C          6.4733802398       -1.4775440399       -0.8075313311
 C          6.5264469396       -0.0491340802       -1.3496519220
 H          7.1162595194       -0.0721985908       -2.2686155521
 H          5.5169508396        0.2654737396       -1.6242683720
 C          7.1305834098        0.9761967004       -0.3799708828
 H          7.8284661097        1.6100990701       -0.9310740733
 H          7.7020396200        0.4622003210        0.3937532774
 C          6.1088264799        1.9053912908        0.2778017169
 H          5.4720066597        2.3515041803       -0.4902716933
 H          6.6531025100        2.7189482011        0.7647038462
 C          5.2064750002        1.2601034014        1.3370381875
 H          5.8193259704        0.7309513419        2.0695075577
 H          4.6717672702        2.0638103817        1.8516797371
 H          7.4884814199       -1.8496370197       -0.6571621710
 H          5.9871065597       -2.1091307104       -1.5546789005
 H          6.2854452203       -1.1778856985        1.3285648388
 H          5.5404441802       -2.6698335689        0.7233091499
 O          3.4081196500       -1.7474230395       -0.0554524202
 C          2.1164119200       -1.2862943097       -0.2663468602
 O          1.3371080699       -2.1369806501       -0.7357181095
 H         -1.9746087203       -0.5507966704       -1.0172733198
 C         -1.7445533000       -0.7530382098        0.0152015103
 C         -0.5782133899       -0.2747050093        0.5905723897
 C         -0.3269872896       -0.5688206685        1.9293165499
 C         -1.2018976194       -1.3473646781        2.6597230206
 C         -2.3589451995       -1.8357472685        2.0774396911
 C         -2.6281427398       -1.5354232093        0.7489123210
 N         -3.7958537799       -2.0104127498        0.1323692116
 S         -4.6551175302       -0.9977903205       -0.8800249789
 O         -6.0047573602       -1.5200829705       -0.8552972083
 O         -4.0335712105       -0.9293793313       -2.1779503291
 C         -4.6004771401        0.5996320600       -0.0858915999
 C         -4.0821092603        1.6836910296       -0.7624016107
 C         -4.0260526502        2.9111734900       -0.1212768015
 C         -4.4847851600        3.0313530308        1.1808690785
 C         -5.0096834697        1.9334710412        1.8457367293
 C         -5.0700523498        0.7050736908        1.2088191901
 H         -5.4813095397       -0.1639280089        1.6958920507
 H         -5.3689976195        2.0314490619        2.8574208493
 H         -4.4343674099        3.9864097412        1.6795593879
 H         -3.6226910604        3.7669100997       -0.6391861222
 H         -3.7311316305        1.5455078490       -1.7718793807
 H         -4.4063010298       -2.5422677894        0.7349537320
 H         -3.0405844893       -2.4526058282        2.6429630817
 H         -0.9849124992       -1.5756182774        3.6923123307
 H          0.5765638605       -0.1877619981        2.3852991994
 C          0.4225064199        0.5582312502       -0.1699211210
 H          0.4145150299        1.5750173005        0.2509627983
 C          0.1415815995        0.6442345293       -1.6552513410
 C         -0.7635146006        1.7077952689       -2.1970992615
 C          0.7137854993        1.7896733488       -2.4339484519
 H          1.0918707191        1.6006492982       -3.4275636918
 H          1.2794053294        2.5276944092       -1.8839569325
 H         -1.1982115405        2.3970418893       -1.4894190118
 H         -1.4045481408        1.4590827083       -3.0300291012
 H          0.1331012195       -0.3285387210       -2.1352285304
 O          2.5507762300        2.1070251910        0.9279727175
