  62
        -98.94570036
 C          2.5625620427        0.1293842875        0.0688979935
 C          2.4327768160        1.1909407579       -0.8560581665
 C          1.9112533412        2.4508158698       -0.3173762585
 C          1.5926865363        2.5358542756        0.9872592007
 C          1.0358235266        3.7469518071        1.6850200927
 C         -0.4845286033        3.8934912862        1.5320411979
 C         -0.9531718624        4.3786752400        0.1594319543
 H         -1.9970674826        4.6804072917        0.2650545461
 H         -0.3837433715        5.2628077695       -0.1305551043
 C         -0.8616278042        3.3173091770       -0.9455387647
 H         -0.7901751572        2.3244204246       -0.4944587475
 H         -1.7823888302        3.3208692304       -1.5349309764
 C          0.2966534675        3.5074431543       -1.9253106261
 H          0.1382877130        4.4189285607       -2.5073230408
 H          0.2926813029        2.6598270782       -2.6162627404
 C          1.6823801927        3.5839446369       -1.2721146886
 H          2.4349433665        3.5076869179       -2.0614549653
 H          1.8045183196        4.5396969691       -0.7624721904
 H         -0.8224413131        4.6095947519        2.2849166767
 H         -0.9499678878        2.9285100822        1.7488148768
 H          1.5314126354        4.6466109109        1.3184490778
 H          1.2671356086        3.6274340275        2.7455797944
 O          1.7637606423        1.5024102413        1.8527601239
 C          2.2104698169        0.2670032352        1.4119946762
 O          2.2694468880       -0.6054426592        2.3004118923
 O          2.7381112890        1.0883170387       -2.0770973266
 C          2.9890554505       -1.2372969917       -0.4309685320
 C          1.8862410904       -2.2428996980       -0.1950676990
 C          2.1258246573       -3.5819404715        0.0852767752
 C          1.0689005493       -4.4555355922        0.2812391250
 C         -0.2399849132       -4.0155712945        0.2228984903
 C         -0.4903139359       -2.6741613508       -0.0516542912
 C          0.5680389669       -1.8150216078       -0.2881535861
 H          0.3601715511       -0.7832781420       -0.5315284970
 N         -1.8048787347       -2.1785429962       -0.0461910481
 S         -2.1378716485       -0.5638616369       -0.3500824220
 O         -1.8363958919       -0.2187966447       -1.7234281446
 O         -1.5149984438        0.2367941043        0.6734176598
 C         -3.9039709110       -0.5817957174       -0.1115218808
 C         -4.7440583243       -0.6098952865       -1.2081352568
 C         -6.1143280030       -0.6538191832       -1.0026797113
 C         -6.6181846048       -0.6707882207        0.2890083474
 C         -5.7625590791       -0.6399201120        1.3805100345
 C         -4.3919845580       -0.5953648913        1.1813916934
 H         -3.6873644076       -0.5618828533        1.9964519460
 H         -6.1573990857       -0.6501213593        2.3836155640
 H         -7.6845417444       -0.7054619508        0.4467842959
 H         -6.7817438573       -0.6743081922       -1.8490597241
 H         -4.3058989802       -0.5867319146       -2.1929544095
 H         -2.5037417353       -2.8147981325       -0.3987692906
 H         -1.0612437608       -4.6930969237        0.3961063344
 H          1.2699094048       -5.4946387308        0.4936920077
 H          3.1399854942       -3.9409195344        0.1525810467
 H          3.1224171401       -1.1233407151       -1.5184675906
 C          4.3115600101       -1.6521535892        0.1810711866
 C          5.2878609288       -2.4770893617       -0.6019431678
 C          5.5727799628       -1.0303789103       -0.3370148136
 H          6.3489444495       -0.7742193035        0.3681898637
 H          5.4769746207       -0.3303770021       -1.1543893791
 H          5.8740743287       -3.2164905011       -0.0774028671
 H          5.0119570409       -2.7602623321       -1.6066174602
 H          4.2367170416       -1.8187281514        1.2497729209
