  62
        -98.93928734
 C         -1.7503633867       -0.7515995202       -0.6919471894
 C         -2.8746007389       -0.0380988080       -1.1784889895
 C         -4.1029835081       -0.1521876889       -0.3740729217
 C         -4.1011570029       -0.8991123839        0.7439907722
 C         -5.2634434023       -1.0489787853        1.6813295240
 C         -5.2197551823        0.0088328779        2.7929715934
 C         -5.0015852948        1.4331100202        2.2821395742
 H         -5.0194006529        2.0963001022        3.1498227395
 H         -4.0032998914        1.5061511134        1.8441775077
 C         -6.0409408248        1.9057445280        1.2559813210
 H         -6.3529448065        2.9196773571        1.5154821589
 H         -6.9269821476        1.2718392430        1.3072253336
 C         -5.5342934665        1.9517738457       -0.1868733221
 H         -4.5964485777        2.5118789591       -0.2279274904
 H         -6.2665585369        2.4990313367       -0.7866147850
 C         -5.3144103982        0.5918112618       -0.8616150771
 H         -6.2121207617       -0.0206380745       -0.7559149303
 H         -5.1458511195        0.7743910908       -1.9270370252
 H         -6.1555838755       -0.0390897138        3.3527448202
 H         -4.4028669864       -0.2384055517        3.4749754961
 H         -6.1912739360       -0.9627188256        1.1192327294
 H         -5.2147214443       -2.0407541921        2.1341753903
 O         -3.0056160110       -1.5708075367        1.1790419753
 C         -1.8104562523       -1.5044881790        0.4840057244
 O         -0.8828757694       -2.1561311522        1.0035960131
 O         -2.8727763026        0.6702876512       -2.2188370899
 C         -0.4082232264       -0.7510281401       -1.3983796158
 C          0.4290427941        0.4708294452       -1.0890177187
 C         -0.1239120631        1.6696923336       -0.6588132884
 C          0.6818565754        2.7536060173       -0.3534147448
 C          2.0569830441        2.6630328847       -0.4649975689
 C          2.6211319297        1.4732806133       -0.9038653426
 C          1.8104818766        0.3912723554       -1.2185987371
 H          2.2614451553       -0.5333503545       -1.5499660055
 N          4.0316612129        1.3766359787       -0.9656085752
 S          4.7709777555        1.1561196120        0.5267015072
 O          4.3161007375        2.1887869733        1.4198550378
 O          6.1908197909        1.1002376620        0.2676413203
 C          4.1831433408       -0.4453034350        1.0473852558
 C          2.8871708633       -0.5562540559        1.5135950449
 C          2.3711478411       -1.8180253663        1.7670208139
 C          3.1653714132       -2.9375381543        1.5683577599
 C          4.4716377092       -2.8089865045        1.1200330457
 C          4.9826661430       -1.5521445468        0.8393100681
 H          5.9847006044       -1.4054050054        0.4692432196
 H          5.0848727261       -3.6838216799        0.9741981201
 H          2.7542610268       -3.9158666669        1.7619355732
 H          1.3431295643       -1.9252027876        2.0772031867
 H          2.3002118276        0.3348372996        1.6694638984
 H          4.3562131504        0.6564794473       -1.5972452188
 H          2.7012523046        3.4853307450       -0.2010763068
 H          0.2315692728        3.6757250589       -0.0180129469
 H         -1.1955024990        1.7545202315       -0.5637450741
 H          0.1341144591       -1.6219847626       -1.0028193781
 C         -0.5408940326       -0.9158073311       -2.9026238089
 C          0.4633447195       -1.7258947589       -3.6631714864
 C         -0.9260040580       -2.2507683488       -3.4625256634
 H         -1.6012246100       -2.2797298751       -4.3041322072
 H         -1.0677588128       -3.0613232731       -2.7620826027
 H          0.7508151442       -1.3933135932       -4.6488174767
 H          1.2583831767       -2.2016048686       -3.1088897176
 H         -0.9551636930       -0.0412409290       -3.3878315270
