  62
        -98.94304240
 C         -0.7621148580       -1.4128209747       -0.0698857035
 C         -1.5290689288       -0.8233407383        0.9679333603
 C         -2.5637138273        0.1331566294        0.5582962579
 C         -2.6767131828        0.4523926738       -0.7431249397
 C         -3.7291958819        1.3572661868       -1.3157790198
 C         -4.9655809296        0.5571833789       -1.7497428044
 C         -5.4793593857       -0.4100768577       -0.6827969615
 H         -6.3718049974       -0.8935326617       -1.0862505805
 H         -4.7344282618       -1.1933277370       -0.5243205386
 C         -5.8174030022        0.2474850976        0.6627500677
 H         -6.7765384651       -0.1422412174        1.0100707465
 H         -5.9350502912        1.3234195072        0.5296405998
 C         -4.7995543340       -0.0190194954        1.7737256273
 H         -5.2409051387        0.3007703096        2.7212714911
 H         -4.6113194253       -1.0930190283        1.8466936678
 C         -3.4514299641        0.6991565798        1.6302023204
 H         -3.6216704181        1.7651320062        1.4705060781
 H         -2.9035993976        0.5708316270        2.5677641944
 H         -5.7561984980        1.2607199410       -2.0173194464
 H         -4.7092741084       -0.0203189920       -2.6411471872
 H         -3.3127009397        1.8660810777       -2.1870962091
 H         -4.0139728742        2.0983589220       -0.5712075152
 O         -1.8653142868       -0.0604190035       -1.7009064940
 C         -0.9059677875       -1.0263238105       -1.4036498100
 O         -0.2898759443       -1.4351650647       -2.4034066592
 O         -1.3677196282       -1.1091920524        2.1842377988
 C          0.2332716085       -2.4749275524        0.3601319127
 C          1.5504117245       -1.8683497380        0.7710324591
 C          2.2125895045       -2.3266005533        1.9049664942
 C          3.4346303574       -1.7929724841        2.2715767513
 C          4.0081772712       -0.7791440364        1.5262907885
 C          3.3469080868       -0.3032843770        0.3992398447
 C          2.1286368081       -0.8522800972        0.0233152174
 H          1.6370848140       -0.4890793280       -0.8670230467
 N          3.8976271687        0.7367150895       -0.3624255844
 S          2.9008475600        1.8585031565       -1.0890519032
 O          2.3688393391        1.3432980710       -2.3242742406
 O          3.7344404613        3.0373358098       -1.2159194334
 C          1.5812086847        2.2033798101        0.0624812288
 C          1.8537207838        2.3064266037        1.4122679943
 C          0.8270479878        2.6411795119        2.2799713541
 C         -0.4421964437        2.8940547036        1.7851420894
 C         -0.6960705070        2.8035436488        0.4262032555
 C          0.3207587498        2.4437251140       -0.4433090126
 H          0.1579529109        2.3362854110       -1.5047302103
 H         -1.6791494099        3.0110272095        0.0369559725
 H         -1.2382198651        3.1631363075        2.4609164031
 H          1.0211715998        2.7084656836        3.3381645975
 H          2.8516466664        2.1245690693        1.7758416717
 H          4.7299998845        1.1606112746        0.0204781305
 H          4.9588285165       -0.3550545126        1.8109050271
 H          3.9412144955       -2.1614976856        3.1501464022
 H          1.7560493126       -3.0991688487        2.5054884446
 H         -0.2078956945       -2.9245667026        1.2650768115
 C          0.4069977365       -3.5936606764       -0.6576277642
 C          1.6053120628       -3.7197803270       -1.5443499767
 C          1.4028596501       -4.6909183323       -0.4224556532
 H          1.1179452832       -5.7042611436       -0.6615677263
 H          2.0531208784       -4.6029521926        0.4343315658
 H          1.4433404737       -4.0462668032       -2.5602184950
 H          2.3852262310       -2.9795580952       -1.4528962085
 H         -0.5418232797       -3.8860572846       -1.0965453336
