  62
        -98.94490016
 C         -2.0940524219       -1.3891660718        0.1150727943
 C         -2.0436127178       -0.5380589232       -1.0152974690
 C         -2.8771411712        0.6721909348       -0.9465688716
 C         -3.6295347139        0.9027314020        0.1438887262
 C         -4.4707757422        2.1250855394        0.3668467809
 C         -3.6773810664        3.2212177338        1.0921580926
 C         -2.3061489260        3.5036264147        0.4777290459
 H         -1.8581995512        4.3176628097        1.0511816634
 H         -1.6689638957        2.6259975477        0.6085777398
 C         -2.3431569057        3.8872880164       -1.0083598881
 H         -1.6877493372        4.7465268544       -1.1672988059
 H         -3.3507974196        4.1989694068       -1.2857163359
 C         -1.8768143856        2.7847368126       -1.9612814841
 H         -1.7304020312        3.2285261135       -2.9498313927
 H         -0.9118903568        2.3928355056       -1.6299275542
 C         -2.8385464721        1.6016764765       -2.1272295699
 H         -3.8395009776        1.9684599752       -2.3628384059
 H         -2.4861419962        1.0017903994       -2.9713903461
 H         -3.5298274866        2.9116811913        2.1292580947
 H         -4.2745808236        4.1348998525        1.0919432130
 H         -4.8284303785        2.4942776941       -0.5924162708
 H         -5.3291383194        1.8444540665        0.9795383442
 O         -3.6695809267        0.0544313586        1.2018150666
 C         -2.9053970884       -1.0977427835        1.2177302890
 O         -3.0355998903       -1.7803338551        2.2531669956
 H          0.5972024979       -1.5775574731       -1.3939377983
 C          0.9929094245       -1.8092398973       -0.4167984903
 C          0.1579089055       -2.3714972834        0.5382540135
 C          0.6731585887       -2.6267947000        1.8041708560
 C          1.9951069198       -2.3414406491        2.0977451219
 C          2.8279742470       -1.7919024668        1.1393664025
 C          2.3168772018       -1.5139278947       -0.1220394921
 N          3.1421644577       -0.9481329153       -1.1097588412
 S          4.1275661857        0.3441610102       -0.7216364873
 O          4.4937816658        0.9322429428       -1.9895470694
 O          5.2162834586       -0.1170512471        0.1032996833
 C          3.1036129815        1.4727763365        0.2044759532
 C          3.1779393114        1.4974946819        1.5823721606
 C          2.3458423065        2.3563791564        2.2827958909
 C          1.4642032846        3.1765060304        1.5966271837
 C          1.4085304411        3.1476968887        0.2114387335
 C          2.2288593903        2.2821727083       -0.4932076763
 H          2.2167253974        2.2347577466       -1.5706091017
 H          0.7281016010        3.7942472628       -0.3188060796
 H          0.8183994895        3.8457197921        2.1429759342
 H          2.3894771224        2.3842638147        3.3597012339
 H          3.8883250827        0.8581377418        2.0794118436
 H          2.6611056446       -0.7805534317       -1.9816483898
 H          3.8636690405       -1.5781550700        1.3473176260
 H          2.3833483695       -2.5530130240        3.0824525950
 H          0.0248110941       -3.0438792855        2.5613342277
 C         -1.2876992407       -2.6756428573        0.2230221782
 H         -1.7092637416       -3.2141190939        1.0819313461
 C         -1.4218697602       -3.5577385049       -1.0031747471
 C         -1.0858063972       -5.0129578032       -0.8889585468
 C         -2.5125624117       -4.5830288232       -1.0498440934
 H         -3.0060746737       -4.7679236667       -1.9922650174
 H         -3.1675764108       -4.6559705561       -0.1935943440
 H         -0.5967522559       -5.4960523148       -1.7209484659
 H         -0.7732099399       -5.3792239112        0.0773204165
 H         -1.1775802799       -3.0556674784       -1.9296567095
 O         -1.3476745433       -0.7531187376       -2.0442971714
