  62
        -98.93582590
 C         -2.3776065183       -0.4792989662        0.9071703570
 C         -3.4272167830       -1.0804768170        0.1676656395
 C         -4.7326211132       -0.4013106459        0.2419625000
 C         -4.8649537925        0.7101456807        0.9863417940
 C         -6.1176234027        1.5294501310        1.0955559290
 C         -6.1482901948        2.6396824363        0.0357625403
 C         -5.8360412103        2.1513182605       -1.3787972392
 H         -5.9165445523        3.0127940494       -2.0452796743
 H         -4.7982302915        1.8120228244       -1.4170542606
 C         -6.7556315978        1.0288426116       -1.8797873670
 H         -7.6604496246        0.9925189314       -1.2720978421
 H         -7.0612619403        1.2571500637       -2.9030044585
 C         -6.1082103551       -0.3568997864       -1.9068723098
 H         -5.1534637142       -0.3047002588       -2.4360454969
 H         -6.7605476750       -1.0259939024       -2.4742751380
 C         -5.8654806254       -1.0069256695       -0.5388369501
 H         -6.7875749204       -0.9911237904        0.0454686852
 H         -5.5848350456       -2.0499216356       -0.7122847022
 H         -7.1351134897        3.1058707183        0.0527506674
 H         -5.4092581504        3.3971226162        0.3071830528
 H         -6.9823595077        0.8787757811        0.9809480645
 H         -6.1449043266        1.9844514457        2.0870791690
 O         -3.8397237622        1.2484955462        1.6962538822
 C         -2.5802590210        0.6768155848        1.6658306945
 O         -1.7319749843        1.2780411698        2.3571467805
 H          1.5325798667       -0.0119777063        1.0592674732
 C          1.1510462021       -0.0377716521        0.0488746975
 C         -0.1295816864       -0.5085776622       -0.1986795851
 C         -0.6032938145       -0.5033093886       -1.5070416500
 C          0.1953379221       -0.0447345624       -2.5387237580
 C          1.4836697202        0.3957128604       -2.2917511848
 C          1.9636642974        0.4007763617       -0.9874728358
 N          3.2602252739        0.8521187842       -0.6960781540
 S          4.1093057979        0.0476363212        0.5243206369
 O          3.8757613915       -1.3751545019        0.4274538413
 O          3.7951847716        0.6609982317        1.7903308315
 C          5.7883961437        0.4351326075        0.0671573087
 C          6.5225464141       -0.4840483457       -0.6583433676
 C          7.8166971939       -0.1604440847       -1.0348945898
 C          8.3501410595        1.0707566894       -0.6845612412
 C          7.6010278102        1.9826828671        0.0444645045
 C          6.3069661029        1.6653534690        0.4254628738
 H          5.6907757912        2.3370680714        1.0003145096
 H          8.0202405777        2.9375837741        0.3176673796
 H          9.3574028862        1.3201778871       -0.9786848360
 H          8.4026992294       -0.8684436208       -1.5984094605
 H          6.0692118116       -1.4318213969       -0.9005691128
 H          3.8252587987        0.9923917725       -1.5225249304
 H          2.1104552416        0.7391274944       -3.1006632710
 H         -0.1842286088       -0.0457283654       -3.5495205099
 H         -1.5961409599       -0.8760664588       -1.7072347689
 C         -0.9629081269       -1.0322276841        0.9426570906
 H         -0.5218747116       -0.6378457997        1.8731234046
 C         -0.9146973747       -2.5520797347        1.0389356844
 C         -0.4921861212       -3.4431393271       -0.0858095697
 C          0.4073927066       -3.2599587062        1.0972641300
 H          0.5223594179       -4.0776622068        1.7931323347
 H          1.3038381055       -2.6700987342        0.9642808993
 H         -1.0160471093       -4.3791919963       -0.2042905786
 H         -0.2056147642       -2.9850470234       -1.0190720018
 H         -1.6971949442       -2.9364444741        1.6861194851
 O         -3.3050069612       -2.1218746489       -0.5252624763
