  62
        -98.94462411
 C         -1.2516687348       -1.1108903854       -0.1243964455
 C         -2.2344829447       -0.8592428802        0.8698520767
 C         -3.0462588173        0.3486423379        0.6932789143
 C         -2.8205074187        1.1518783669       -0.3615035710
 C         -3.5384239019        2.4390792015       -0.6664908451
 C         -4.8693325494        2.2513338227       -1.4075379360
 C         -6.0094934941        1.6795712781       -0.5640230148
 H         -6.1151047553        2.2668578604        0.3486290897
 H         -6.9281654032        1.8058913203       -1.1403639119
 C         -5.8506627079        0.1947063830       -0.2081515004
 H         -6.7947025382       -0.3254006891       -0.3857805934
 H         -5.1072489032       -0.2602288356       -0.8669411522
 C         -5.4534020652       -0.0700949549        1.2441883829
 H         -6.2543545767        0.2607795092        1.9089760788
 H         -5.3316371347       -1.1483743618        1.3745980070
 C         -4.1476427997        0.6103081782        1.6755731395
 H         -4.3047113591        1.6819247044        1.7953889338
 H         -3.8429275998        0.1896181108        2.6366839630
 H         -4.6989093481        1.6081159779       -2.2740768600
 H         -5.1766379666        3.2320423060       -1.7781340818
 H         -3.7115777685        2.9906746597        0.2582185153
 H         -2.8729306986        3.0251826802       -1.3045913647
 O         -1.8636870762        0.8842246945       -1.2877579550
 C         -1.0678300759       -0.2530641172       -1.2074304030
 O         -0.2590954618       -0.3536453261       -2.1509854178
 H          1.8486430776       -1.1571277845       -0.9843458069
 C          1.9469891455       -1.3973147218        0.0627320443
 C          0.8982081407       -1.9993598351        0.7466863799
 C          1.0502546268       -2.2717693122        2.1026952173
 C          2.2280795798       -1.9655469114        2.7582791478
 C          3.2751980184       -1.3789024951        2.0724123441
 C          3.1323979480       -1.0918715097        0.7190336121
 N          4.1994340968       -0.5108732306        0.0124778938
 S          3.9288922540        0.7882178240       -1.0066310757
 O          3.3239665763        0.3462069496       -2.2343193425
 O          5.2302625856        1.4121942013       -1.1298965133
 C          2.8399849944        1.8553639485       -0.0832048761
 C          3.3773136863        2.5682723729        0.9716237675
 C          2.5408700178        3.3561332950        1.7443125433
 C          1.1852794010        3.4110052782        1.4557517562
 C          0.6637844855        2.6927844251        0.3916490183
 C          1.4966462227        1.9058413643       -0.3891848045
 H          1.1237895384        1.3347059134       -1.2247451810
 H         -0.3902858428        2.7322544388        0.1645525992
 H          0.5300282110        4.0183959715        2.0599724316
 H          2.9439683611        3.9213383749        2.5690611329
 H          4.4377621684        2.5075976491        1.1554700086
 H          5.0198146999       -0.3443326439        0.5780926975
 H          4.2008653931       -1.1457882228        2.5762370930
 H          2.3322116283       -2.1856006839        3.8096454565
 H          0.2271972980       -2.7182350060        2.6412134650
 C         -0.4010220095       -2.3565183235        0.0616447867
 H         -0.9731786159       -2.9845188828        0.7589028085
 C         -0.1757390843       -3.1495369037       -1.2084699951
 C          0.1873174358       -4.5991432699       -1.0976636368
 C         -1.1690213190       -4.2019998474       -1.5962665851
 H         -1.3958841368       -4.3339297268       -2.6436324311
 H         -2.0167378385       -4.3551208985       -0.9440649802
 H          0.8961846815       -5.0065760815       -1.8020650464
 H          0.2579869256       -5.0226902093       -0.1071324351
 H          0.2746987810       -2.5787001038       -2.0096935177
 O         -2.4238555577       -1.6138910535        1.8597248676
