  62
        -98.93875019
 C         -0.9106273793       -1.9016816062       -0.4396695172
 C         -1.1656737957       -0.5996409441       -0.9370105077
 C         -2.5204861402       -0.0728180731       -0.6956395958
 C         -3.4002405192       -0.7871978253        0.0266482764
 C         -4.8218471787       -0.4136452164        0.3520647396
 C         -4.9976090081        0.8356072594        1.2352757704
 C         -5.2505459784        2.1263268676        0.4479880899
 H         -5.6589019124        1.8689624258       -0.5300694123
 H         -6.0151874452        2.7105642749        0.9640786706
 C         -4.0372256776        3.0420508342        0.2686473194
 H         -4.2926687613        3.7826723047       -0.4928623671
 H         -3.8553335509        3.5809185264        1.2016230444
 C         -2.7214305275        2.3668295789       -0.1268298058
 H         -2.2486280845        1.9122973079        0.7484051686
 H         -2.0427454121        3.1561999868       -0.4587263451
 C         -2.8360660110        1.2960063094       -1.2288762904
 H         -3.8300149407        1.3109443786       -1.6746328596
 H         -2.1011543883        1.4965949443       -2.0113958295
 H         -5.8569864525        0.6529525126        1.8823990336
 H         -4.1252565539        0.9489107776        1.8794966950
 H         -5.3749839809       -0.2821231829       -0.5806281425
 H         -5.2396444470       -1.2804409302        0.8681372658
 O         -3.0944732866       -2.0083182809        0.5438739308
 C         -1.8613856430       -2.5911370081        0.3182396618
 O         -1.7324838984       -3.7220264708        0.8312644629
 H          1.3121225253       -0.1806218381        0.0175746941
 C          1.7128453176       -0.9316134170        0.6784946446
 C          1.3587300587       -2.2603207785        0.4946828604
 C          1.8732154185       -3.2182785548        1.3597683494
 C          2.7127056222       -2.8481099718        2.3955962974
 C          3.0416418606       -1.5194653289        2.5937792546
 C          2.5327860110       -0.5544396134        1.7309599746
 N          2.8597130325        0.7978469660        1.8909448981
 S          1.7874247488        1.9900764458        1.4121391264
 O          2.2585775986        3.1804369763        2.0943229711
 O          0.4174902234        1.6236028219        1.6903831009
 C          2.0835438260        2.1900156282       -0.3308883012
 C          1.0804248482        2.7292276123       -1.1082341212
 C          1.3120177853        2.9330090133       -2.4585819818
 C          2.5398445543        2.5967602277       -3.0050354143
 C          3.5403352570        2.0608384345       -2.2089367099
 C          3.3156419842        1.8571370734       -0.8571052934
 H          4.0697121561        1.4340231982       -0.2143919315
 H          4.4936721754        1.7963008968       -2.6378881898
 H          2.7158112076        2.7492597895       -4.0584486509
 H          0.5309533676        3.3437469069       -3.0782451554
 H          0.1350396769        2.9587174461       -0.6451418541
 H          3.3549868688        1.0347704235        2.7374848351
 H          3.6818833410       -1.2270178276        3.4120791486
 H          3.1039929373       -3.5996249386        3.0645049873
 H          1.5927234440       -4.2531632957        1.2301371803
 C          0.4099945552       -2.6377559979       -0.6170919235
 H          0.1726966448       -3.7048275972       -0.5046521780
 C          1.0561570385       -2.4297772424       -1.9721931504
 C          2.0326995020       -3.4499340603       -2.4721227762
 C          0.6816469080       -3.3293546239       -3.1096374065
 H          0.6102913422       -2.9035396226       -4.0989434682
 H         -0.0455331856       -4.1047341379       -2.9155174833
 H          2.8940224047       -3.1084488108       -3.0248769882
 H          2.2222163086       -4.3104714341       -1.8484145093
 H          1.2478148157       -1.3905106090       -2.2025135986
 O         -0.3343179868        0.1008300586       -1.5716075510
