  62
        -98.93595243
 C         -2.6057061390       -0.2266572601       -0.1151915108
 C         -2.3374775801       -1.3512171587       -0.9350046671
 C         -1.5965268088       -2.4560898934       -0.3147220982
 C         -1.2482216726       -2.3645149756        0.9809189684
 C         -0.3794399156       -3.3417938833        1.7207525502
 C          1.1008654929       -3.0599114238        1.3882112723
 C          1.8003753507       -4.1657879755        0.5956091634
 H          2.0504170734       -4.9837459822        1.2753125991
 H          2.7363195018       -3.7478289239        0.2184931229
 C          1.0132502038       -4.7588289331       -0.5768570114
 H          0.2835284721       -5.4780085348       -0.2011807228
 H          1.7254576136       -5.3234704960       -1.1822104780
 C          0.2895526584       -3.7527147906       -1.4812892661
 H          0.3912513741       -4.0875413790       -2.5159513008
 H          0.7570386219       -2.7677752924       -1.4194693769
 C         -1.2185696736       -3.6131729964       -1.1954174221
 H         -1.6044841325       -4.5448746166       -0.7728932963
 H         -1.7411992404       -3.4343010156       -2.1395466550
 H          1.6553884583       -2.9001594360        2.3147651351
 H          1.1548825864       -2.1182702036        0.8348277949
 H         -0.5606170074       -3.1979478378        2.7862411423
 H         -0.6492635459       -4.3603490466        1.4507488774
 O         -1.5850206612       -1.3037849035        1.7573236081
 C         -2.1896134729       -0.1775022720        1.2173069350
 O         -2.3153370156        0.7608461352        2.0263634035
 H         -0.5324627632        0.8446850170       -1.1747198015
 C         -0.7938362202        1.8216719125       -0.7936390181
 C         -2.1281363571        2.1277700496       -0.5536953357
 C         -2.4406659987        3.3922246751       -0.0760044141
 C         -1.4326274821        4.3077934768        0.1793801170
 C         -0.1030392647        3.9765933060       -0.0063517850
 C          0.2180434023        2.7142924314       -0.4933492354
 N          1.5542491030        2.3081502954       -0.6888794181
 S          1.9179184614        0.7375081148       -0.1621885761
 O          1.5584444053       -0.2034823267       -1.1940619573
 O          1.3478643615        0.5109294468        1.1455107187
 C          3.6952250572        0.8386006860       -0.0524963616
 C          4.2798275566        1.1615386240        1.1575078587
 C          5.6597351106        1.2731882715        1.2267356978
 C          6.4266987326        1.0640278739        0.0902962454
 C          5.8256455094        0.7390542736       -1.1167236293
 C          4.4464276674        0.6254424083       -1.1925583582
 H          3.9337722860        0.3669652984       -2.1044409324
 H          6.4249794993        0.5731709699       -1.9972840973
 H          7.5001507151        1.1516139945        0.1468876702
 H          6.1295701376        1.5222897577        2.1645610766
 H          3.6428128398        1.3047991457        2.0159410261
 H          2.2132299358        2.9683267400       -0.2963559423
 H          0.6796030957        4.6817241863        0.2301441930
 H         -1.6866817310        5.2869619411        0.5564869786
 H         -3.4673284167        3.6522298799        0.1240369710
 C         -3.1287205205        1.0252827000       -0.8029236246
 H         -3.0854937077        0.7719365165       -1.8766913094
 C         -4.5708588228        1.4071175206       -0.5170255739
 C         -5.5596100714        0.3820253993       -0.0498589951
 C         -5.1377752854        1.4885789874        0.8672898135
 H         -5.8496185137        2.2732532893        1.0791894259
 H         -4.4803121775        1.2556794564        1.6890636404
 H         -5.1860106104       -0.6124973645        0.1483027623
 H         -6.5567785485        0.4021796052       -0.4634700397
 H         -4.9415780171        2.1343343447       -1.2335139462
 O         -2.6808970273       -1.4130915577       -2.1480348554
