  62
        -98.93976002
 C         -2.6827391586       -0.7949713778        0.3375086354
 C         -2.6833334068        0.3161907624        1.2150480640
 C         -3.3341151890        1.5307082128        0.7134799212
 C         -3.8823068036        1.5337937412       -0.5154969603
 C         -4.6062939759        2.6855759353       -1.1584052024
 C         -3.6811704451        3.6995271968       -1.8452344020
 C         -2.8721697859        4.5867230814       -0.8982851305
 H         -2.4369922868        5.3855475734       -1.5019261148
 H         -3.5439078301        5.0528514991       -0.1767981024
 C         -1.7428684498        3.8570776980       -0.1572691995
 H         -1.5296728847        2.9105462738       -0.6600792499
 H         -0.8306740930        4.4561143022       -0.2038402807
 C         -2.0293613389        3.5817109525        1.3191192770
 H         -1.1814835139        3.0326484148        1.7368517136
 H         -2.1154890955        4.5276831705        1.8581537363
 C         -3.2984477189        2.7576067888        1.5742735043
 H         -4.1844791392        3.3683698835        1.4033302290
 H         -3.2925829290        2.4323846953        2.6174982821
 H         -3.0019160374        3.1585998405       -2.5082750288
 H         -4.3081865916        4.3438084976       -2.4658096465
 H         -5.2184767294        3.1951213530       -0.4137968041
 H         -5.2653614139        2.2540155786       -1.9147271649
 O         -3.8531828160        0.4481941872       -1.3323966679
 C         -3.2297761564       -0.7298387402       -0.9444614293
 O         -3.2419247160       -1.6211023284       -1.8135196562
 O         -2.1618886554        0.2942730420        2.3633354364
 C         -2.0041682272       -2.0764034165        0.7913145401
 C         -0.7454591740       -2.2749516312       -0.0181498648
 C         -0.5264506596       -3.3584510093       -0.8567008282
 C          0.6478425799       -3.4501079518       -1.5853931176
 C          1.6229743766       -2.4748655146       -1.4924783596
 C          1.4193022419       -1.3915510379       -0.6459736603
 C          0.2445001738       -1.3038887015        0.0848522750
 H          0.0814386888       -0.4616457588        0.7460789496
 N          2.3967180948       -0.3809420288       -0.5484990732
 S          4.0011672769       -0.8830932542       -0.3673013200
 O          4.5044765169       -1.2770431261       -1.6591191305
 O          4.0961409090       -1.8792405012        0.6768756184
 C          4.7796045690        0.6350262388        0.1446704285
 C          5.0767407700        1.5826229527       -0.8165041746
 C          5.6627125009        2.7746946709       -0.4219302357
 C          5.9401311431        2.9979827953        0.9187577961
 C          5.6373659723        2.0367667014        1.8713047109
 C          5.0492035148        0.8428858109        1.4838171204
 H          4.8035266312        0.0646181674        2.1886409375
 H          5.8567250601        2.2117960089        2.9122775843
 H          6.3980035686        3.9258860946        1.2231297983
 H          5.9017997674        3.5238909464       -1.1593288683
 H          4.8521643566        1.3615249794       -1.8468335918
 H          2.1594215512        0.2966021145        0.1641086221
 H          2.5406120320       -2.5409366611       -2.0542056506
 H          0.8052152860       -4.2951260911       -2.2389122898
 H         -1.2761961099       -4.1266022430       -0.9485964989
 H         -1.7061191195       -1.8914942024        1.8338362532
 C         -2.9547980446       -3.2523239102        0.7604256211
 C         -2.6721773463       -4.4572441466        1.6054715698
 C         -3.7979464916       -3.5364622634        1.9659684697
 H         -4.8117126254       -3.8762368492        1.8164740957
 H         -3.6765475398       -2.8902037155        2.8230963731
 H         -2.9132088768       -5.4325449715        1.2109040973
 H         -1.7841050692       -4.4383024871        2.2191377260
 H         -3.4095202921       -3.4033792693       -0.2113422357
