  62
        -98.94529612
 C          2.1253792565        0.9130635212        0.0718382017
 C          2.8361733283        0.2294091516        1.0861332135
 C          3.5372840733       -0.9921718753        0.6694005145
 C          3.4261411928       -1.4108919798       -0.6047220488
 C          4.1208734392       -2.6128479734       -1.1748679736
 C          5.4842302015       -2.2357948218       -1.7714500604
 C          6.3538827052       -1.3924044442       -0.8390473281
 H          7.3013958032       -1.2140769499       -1.3518070354
 H          5.8791346263       -0.4195350181       -0.6928546016
 C          6.6253789617       -2.0339588127        0.5288433375
 H          7.6847015022       -1.9167621812        0.7664407089
 H          6.4200923473       -3.1040831089        0.4834191962
 C          5.8389896102       -1.4161227216        1.6864430754
 H          6.2626968120       -1.7888332337        2.6227243602
 H          5.9671578476       -0.3308462807        1.6780524681
 C          4.3362789320       -1.7231826703        1.7117744101
 H          4.1788371805       -2.8010166753        1.6330543200
 H          3.9450002645       -1.3888796558        2.6773041647
 H          5.3143936116       -1.6680424180       -2.6891628005
 H          6.0117142553       -3.1548721325       -2.0330102171
 H          4.2481744885       -3.3581669061       -0.3919732481
 H          3.4911315015       -3.0311234507       -1.9621585386
 O          2.6945773242       -0.7535948912       -1.5406259859
 C          2.0322866577        0.4264656329       -1.2325951306
 O          1.4106637602        0.9306629772       -2.1860642476
 H         -0.0915140683        0.1837055920        1.3253849746
 C         -0.6955708537        0.8696865975        0.7430833094
 C         -0.0945501395        1.9952489508        0.1915640298
 C         -0.8796691128        2.8655357905       -0.5518060694
 C         -2.2240205201        2.5997826170       -0.7499153708
 C         -2.8144118128        1.4735480418       -0.2076733248
 C         -2.0399167666        0.6005643075        0.5456368214
 N         -2.6345771735       -0.5446102283        1.1113008301
 S         -3.4190252860       -1.5958481601        0.0584452416
 O         -3.3904784242       -2.8822803497        0.7213031271
 O         -2.8503354320       -1.5439517981       -1.2688702640
 C         -5.0944533139       -0.9939258522        0.0342679332
 C         -5.6806561300       -0.6379529912       -1.1644222130
 C         -6.9878965953       -0.1762151046       -1.1593535517
 C         -7.6815117568       -0.0808570230        0.0373803819
 C         -7.0786816529       -0.4446834371        1.2324869693
 C         -5.7726151043       -0.9075876451        1.2345474186
 H         -5.2677720512       -1.2036849464        2.1388184049
 H         -7.6213120535       -0.3688178652        2.1609276068
 H         -8.6979938446        0.2797274954        0.0384109930
 H         -7.4577399735        0.1071728725       -2.0874415511
 H         -5.0990469966       -0.7237293870       -2.0685986739
 H         -2.0054524450       -1.0647116312        1.7069252940
 H         -3.8590653036        1.2608655592       -0.3655930381
 H         -2.8203080681        3.2801754591       -1.3383899055
 H         -0.4373323065        3.7455124839       -0.9885188199
 C          1.3834435119        2.1899895228        0.4258748264
 H          1.5429268752        2.3305061555        1.5054427822
 C          1.9701397819        3.3740391149       -0.3121786674
 C          1.8626509193        4.7511630297        0.2694075999
 C          3.1851246860        4.0472989471        0.2497305553
 H          3.9458337374        4.3925620030       -0.4342485684
 H          3.5773770882        3.6656450984        1.1812151582
 H          1.3581191500        4.8540777533        1.2180372737
 H          1.7173064260        5.5843123520       -0.4013194994
 H          1.9123978543        3.2632775941       -1.3891161239
 O          2.8755319224        0.6183754095        2.2854551095
