  62
        -98.92975480
 C         -2.2154316899       -0.2750093297        0.4157260503
 C         -3.3219244400       -0.8456036892       -0.2582092600
 C         -4.3995297498        0.0862914812       -0.6498158295
 C         -4.2685182996        1.3964315210       -0.3849460087
 C         -5.2599660695        2.4923054313       -0.6632018881
 C         -6.1502588895        2.7447924508        0.5653162320
 C         -7.3943160596        1.8612560309        0.6519923615
 H         -7.8559665196        2.0454078204        1.6248217316
 H         -8.1083944795        2.1720507014       -0.1134614183
 C         -7.1421363198        0.3585206909        0.5036960407
 H         -6.2567837398        0.0760439705        1.0763223005
 H         -7.9920304599       -0.1679095892        0.9424524604
 C         -6.9837487099       -0.0857750483       -0.9580153196
 H         -7.3087226397        0.7231582621       -1.6120476691
 H         -7.6503431600       -0.9283441381       -1.1529489001
 C         -5.5712135899       -0.5377917482       -1.3583690298
 H         -5.4424699899       -0.3944428577       -2.4362664098
 H         -5.4656790401       -1.6111662084       -1.1722486204
 H         -6.4756580693        3.7870177508        0.5539475526
 H         -5.5348275995        2.6050453902        1.4579352519
 H         -4.6775471194        3.3943701913       -0.8621360176
 H         -5.8562735595        2.2588611119       -1.5402079283
 O         -3.1778838996        1.9081664905        0.2521656915
 C         -2.1423142597        1.0965292201        0.6713538311
 O         -1.2240698996        1.7030966897        1.2618182714
 O         -3.4302157401       -2.0689135690       -0.5278251607
 C         -1.0275402900       -1.0889435702        0.9022546599
 C          0.0084070200       -1.2284019297       -0.1841524802
 C         -0.3327762601       -1.6901733389       -1.4521658405
 C          0.6313018299       -1.8068065785       -2.4360845305
 C          1.9466743500       -1.4630564489       -2.1787203803
 C          2.2994777500       -1.0061002396       -0.9141426301
 C          1.3295721400       -0.8923513000        0.0728910200
 H          1.6117550401       -0.5151619706        1.0445618102
 N          3.6386345801       -0.6966003700       -0.6191155999
 S          3.9744504502        0.5944880594        0.4171866708
 O          3.7612706202        0.1628109487        1.7756015406
 O          3.2592631604        1.7759539197       -0.0099849885
 C          5.7223692003        0.7857539093        0.1187289109
 C          6.1668351204        1.8084619497       -0.6974055585
 C          7.5262973704        1.9303193396       -0.9396641984
 C          8.4126728503        1.0302565292       -0.3677223089
 C          7.9515390302        0.0090022588        0.4499765005
 C          6.5940569101       -0.1172996711        0.6979804204
 H          6.1909713500       -0.8876388114        1.3342947500
 H          8.6439968701       -0.6871290216        0.8950464901
 H          9.4698309203        1.1272355491       -0.5581706089
 H          7.8876399806        2.7253862599       -1.5717960580
 H          5.4408799705        2.4884856900       -1.1137111881
 H          4.2140291401       -0.6485135096       -1.4496240399
 H          2.6966678099       -1.5505391985       -2.9502292604
 H          0.3544597799       -2.1644112379       -3.4164642607
 H         -1.3582933701       -1.9593549987       -1.6534347206
 H         -0.5758246999       -0.4839184807        1.7056936802
 C         -1.4279355502       -2.4248898105        1.5158588091
 C         -1.0913357404       -3.7514268602        0.9111084184
 C         -0.3791617403       -3.2934719710        2.1457877286
 H         -0.6016019104       -3.7748175315        3.0861406184
 H          0.6485824897       -2.9761269011        2.0443020188
 H         -1.8268731005       -4.5366007101        0.9951482179
 H         -0.5434899504       -3.7658232097       -0.0174584116
 H         -2.3797972802       -2.3614928706        2.0332244591
