  62
        -98.94507085
 C          2.5422874797        0.2036334764        0.0380203910
 C          2.2893875068        1.2128495126       -0.9199242429
 C          1.7290563345        2.4675182833       -0.4046471626
 C          1.5043328621        2.5925658197        0.9161904159
 C          0.9379978898        3.8163247764        1.5767603991
 C         -0.5878905209        3.7407451422        1.7126058151
 C         -1.3143717047        3.3704642210        0.4192876630
 H         -1.0908006403        2.3301074844        0.1708222708
 H         -2.3861966625        3.4171463912        0.6279959657
 C         -0.9902351013        4.2659642207       -0.7838802287
 H         -1.9217817458        4.4928507928       -1.3066382578
 H         -0.5690805550        5.2123229893       -0.4412865242
 C         -0.0497669227        3.6308781096       -1.8103402283
 H         -0.1014405409        4.2193935109       -2.7307259987
 H         -0.4002395334        2.6212668982       -2.0456755002
 C          1.4269598495        3.5508739688       -1.4009596531
 H          2.0089477416        3.3049722855       -2.2942987569
 H          1.7598073953        4.5231036304       -1.0306042111
 H         -0.9478895158        4.7072382358        2.0718005975
 H         -0.8319487330        2.9819776565        2.4595943331
 H          1.2178872841        4.6937300170        0.9961885199
 H          1.3760872727        3.8961931228        2.5735273781
 O          1.7664278794        1.6044323157        1.8087683545
 C          2.2432548060        0.3720141114        1.3901535569
 O          2.3812550775       -0.4638747932        2.3041576352
 O          2.5298656406        1.0707918361       -2.1518552082
 C          3.0389640941       -1.1489419239       -0.4386801941
 C          1.9718879338       -2.1930252656       -0.2095421933
 C          2.2407512097       -3.5023154410        0.1652915223
 C          1.2056108636       -4.4070661035        0.3405434688
 C         -0.1120295871       -4.0259283417        0.1703185695
 C         -0.3910212008       -2.7144708596       -0.2019255044
 C          0.6473974355       -1.8274221063       -0.4168652773
 H          0.4190496498       -0.8214356314       -0.7384625757
 N         -1.7259636290       -2.2686820894       -0.3113194209
 S         -2.0540515594       -0.6267102190       -0.3314401863
 O         -1.7654302473       -0.0350056792       -1.6230467146
 O         -1.4192785960       -0.0329498780        0.8163763603
 C         -3.8200369310       -0.6804617026       -0.0947469387
 C         -4.6582946862       -0.6107561695       -1.1909189135
 C         -6.0281248431       -0.6931677956       -0.9953588921
 C         -6.5340026073       -0.8443144525        0.2867534419
 C         -5.6805363240       -0.9092775922        1.3783020628
 C         -4.3102830503       -0.8280473338        1.1885446233
 H         -3.6071051839       -0.8658744751        2.0045812786
 H         -6.0767550207       -1.0229051104        2.3744938328
 H         -7.6000624878       -0.9089418161        0.4370318511
 H         -6.6936729127       -0.6390107205       -1.8417727174
 H         -4.2202213622       -0.4814647245       -2.1675963810
 H         -2.3185488735       -2.8157373065       -0.9170798847
 H         -0.9186286523       -4.7239079557        0.3278136058
 H          1.4310708315       -5.4229840104        0.6273832597
 H          3.2604071547       -3.8149812937        0.3218275161
 H          3.1759543036       -1.0401788790       -1.5263273545
 C          4.3713372731       -1.5019043803        0.1876705648
 C          5.3677621170       -2.3288394724       -0.5675126786
 C          5.6155880262       -0.8667780882       -0.3547539251
 H          6.3852805928       -0.5660834602        0.3398049128
 H          5.5027460571       -0.1995665463       -1.1970329597
 H          5.9733451681       -3.0340261128       -0.0185516719
 H          5.0974335981       -2.6548941469       -1.5605798427
 H          4.3023749817       -1.6316517944        1.2616164246
