  62
        -98.94123215
 C          1.7730059613        1.3125099188       -0.1126173509
 C          0.8430674453        1.7181372649       -1.1007444635
 C         -0.2815958153        2.5715291255       -0.6731031556
 C         -0.3508106442        2.9413264364        0.6189228933
 C         -1.4291240979        3.7361401539        1.3057117404
 C         -2.6854055010        2.8930297202        1.5734229685
 C         -3.1632476941        2.0585318381        0.3879602846
 H         -2.3740623427        1.3567785413        0.1122703601
 H         -4.0101442782        1.4570430193        0.7306858880
 C         -3.6104373621        2.8492277117       -0.8397277271
 H         -4.0176635373        2.1280464376       -1.5527593483
 H         -4.4183524848        3.5254843179       -0.5519426480
 C         -2.5258672125        3.6612281748       -1.5528411350
 H         -2.3227202419        4.5922919858       -1.0305617698
 H         -2.9212904404        3.9367550770       -2.5347609469
 C         -1.2261405020        2.9041543106       -1.8032870056
 H         -1.4596448982        1.9531823161       -2.2937986528
 H         -0.6278974671        3.4673660142       -2.5296742569
 H         -2.4586076897        2.1978308668        2.3867344039
 H         -3.4847610940        3.5587401477        1.9048815744
 H         -1.0182934532        4.0591849624        2.2650709412
 H         -1.6728811104        4.6247709738        0.7310981893
 O          0.5950436186        2.5745870993        1.5271076795
 C          1.6433448959        1.7259491130        1.2143400092
 O          2.3680442385        1.4471237054        2.1897631942
 H          1.0659126312       -0.6770989036        1.2664645458
 C          1.4261179111       -1.4287577621        0.5818620295
 C          2.3577068042       -1.1001319432       -0.3898475142
 C          2.8193016601       -2.1078092649       -1.2308446232
 C          2.3476112431       -3.4015762778       -1.1048708869
 C          1.3767172704       -3.7111210144       -0.1677494891
 C          0.9076342517       -2.7125332895        0.6759137353
 N         -0.1102349603       -2.9619838487        1.6161563068
 S         -1.4572192746       -1.9618637893        1.5935599792
 O         -1.1111229956       -0.6356759154        2.0321682863
 O         -2.4410942887       -2.6636521362        2.3895519831
 C         -1.9626050918       -1.9514046312       -0.1161417693
 C         -1.3665352975       -1.0644933139       -0.9891702381
 C         -1.6919971764       -1.1229404993       -2.3348204109
 C         -2.6133860897       -2.0568349242       -2.7820113561
 C         -3.2122076242       -2.9357298086       -1.8913745829
 C         -2.8789255037       -2.8911617088       -0.5473720531
 H         -3.3183771623       -3.5552637872        0.1792523335
 H         -3.9314144924       -3.6584393508       -2.2416621917
 H         -2.8642796339       -2.0980024648       -3.8301695386
 H         -1.2068821386       -0.4403662145       -3.0158246163
 H         -0.6557118202       -0.3434100602       -0.6173281039
 H         -0.4040295711       -3.9280900212        1.6570577501
 H          0.9828286434       -4.7130172909       -0.0912430569
 H          2.7188603669       -4.1739965644       -1.7605053284
 H          3.5438070103       -1.8692687226       -1.9940204770
 C          2.8390483354        0.3268327950       -0.5521207379
 H          2.9752604387        0.5025138116       -1.6291557299
 C          4.1778017572        0.5102370287        0.1349259296
 C          5.4453714491        0.2035703174       -0.6028304045
 C          5.0805493791        1.6247519543       -0.2986001419
 H          5.6352263412        2.1579970489        0.4583543498
 H          4.7429204913        2.2501543968       -1.1122976157
 H          5.3687935621       -0.1225964493       -1.6286661549
 H          6.2595510511       -0.2468558426       -0.0564990007
 H          4.1446012570        0.2880840646        1.1940333584
 O          0.9344329498        1.3617530275       -2.3081043669
