  62
        -98.94301816
 C         -0.9303879824       -1.3080487345        0.2757943927
 C         -1.4212982949       -0.1999029574        1.0013778385
 C         -2.2792825908        0.7378030203        0.2581759624
 C         -2.5019458294        0.5224754646       -1.0498756676
 C         -3.3828732669        1.3330782985       -1.9594880511
 C         -4.7860746302        0.7092560790       -2.0461023314
 C         -5.7555827675        1.1522333932       -0.9503659001
 H         -6.0522085245        2.1871975569       -1.1332413253
 H         -6.6515360706        0.5340512010       -1.0421360527
 C         -5.2268808776        1.0417885543        0.4826945584
 H         -6.0880270719        1.0109293422        1.1530285971
 H         -4.6877623882        0.1008331987        0.6055677598
 C         -4.3289006151        2.2198741895        0.8885494080
 H         -4.6667928705        2.6129169876        1.8493800674
 H         -4.4555870480        3.0237665389        0.1630813360
 C         -2.8311084414        1.8991034260        1.0397890380
 H         -2.6139053099        1.6539368803        2.0840497294
 H         -2.2532376226        2.7962811663        0.7940184583
 H         -4.6694356483       -0.3773258245       -2.0200404151
 H         -5.2254723404        0.9668475726       -3.0119808052
 H         -3.4314838744        2.3663451458       -1.6274403669
 H         -2.9216894486        1.3032392567       -2.9492389416
 O         -1.9810446769       -0.5392205018       -1.7214526978
 C         -1.1823454644       -1.4740620736       -1.0860721954
 O         -0.7791656255       -2.3943175539       -1.8233203236
 O         -1.1591166184       -0.0023247607        2.2190112348
 C         -0.0284512276       -2.3091893977        0.9760602768
 C          1.3150378000       -2.3265031110        0.2896337976
 C          1.9843188647       -3.4856823395       -0.0781201661
 C          3.1903213504       -3.4089048949       -0.7541441244
 C          3.7415481203       -2.1862118849       -1.0891820162
 C          3.0867096961       -1.0192506909       -0.7094342093
 C          1.9017026641       -1.1006663612        0.0004873988
 H          1.3953119535       -0.1940394692        0.2957739968
 N          3.6174067424        0.2421820785       -1.0135295040
 S          2.6047073489        1.5477161640       -1.2765410009
 O          1.3640140053        1.1669377094       -1.9114239707
 O          3.4284944709        2.4876383714       -2.0095675354
 C          2.3110347595        2.1952622381        0.3546349148
 C          1.0188815942        2.4447401035        0.7697169363
 C          0.8084232364        2.9512009651        2.0422332898
 C          1.8909633437        3.2022434427        2.8705775911
 C          3.1844596888        2.9540672811        2.4359853461
 C          3.4004887939        2.4456167812        1.1656634873
 H          4.3888202309        2.2391817342        0.7905576425
 H          4.0226556186        3.1513851473        3.0846361194
 H          1.7220510025        3.5916741719        3.8620712563
 H         -0.1984273672        3.1299920342        2.3832926047
 H          0.2030914708        2.2185297795        0.0991146738
 H          4.4111805603        0.2379923637       -1.6369202528
 H          4.6658193090       -2.1303724787       -1.6437286176
 H          3.6986757285       -4.3165468428       -1.0425171524
 H          1.5566303873       -4.4484147976        0.1486815852
 H          0.1071243279       -1.9197896772        1.9961644855
 C         -0.6907629112       -3.6681737563        1.0540331603
 C         -0.3580289521       -4.6071636136        2.1739776564
 C         -1.6913199575       -3.9246000690        2.1396518359
 H         -2.5674999604       -4.5103085212        1.9051149660
 H         -1.8763677895       -3.1240166666        2.8408011630
 H         -0.3207595031       -5.6656540589        1.9652038477
 H          0.3616790444       -4.2750927722        2.9065898157
 H         -0.8956168582       -4.0865743750        0.0747753374
