  62
        -98.94762218
 C          1.8274164757        1.3467053429       -0.1011474341
 C          2.9371385301        0.6321920863        0.4143194669
 C          3.2591477960       -0.6330611974       -0.2519900650
 C          2.5112106428       -1.0488240961       -1.2897694325
 C          2.6943855466       -2.3288206998       -2.0578201918
 C          2.0134745153       -3.5320494759       -1.3906863996
 C          2.7253575039       -4.0703188163       -0.1488236298
 H          2.2862949168       -5.0448418801        0.0743324403
 H          3.7812790550       -4.2298267482       -0.3724042399
 C          2.5861228123       -3.1764914677        1.0915977644
 H          1.7457585947       -2.4909796767        0.9514299392
 H          2.3415017147       -3.7953035029        1.9588898405
 C          3.8423208728       -2.3794623526        1.4466444765
 H          3.6130311996       -1.7508180771        2.3111857099
 H          4.6415752113       -3.0673431819        1.7332017998
 C          4.3605403642       -1.4703821824        0.3245764764
 H          5.1062599541       -0.7940795522        0.7504468569
 H          4.8330646127       -2.0674415053       -0.4551170369
 H          0.9916887241       -3.2495036443       -1.1226439347
 H          1.9590550365       -4.3334223569       -2.1315732383
 H          2.2395405589       -2.1740751983       -3.0385941550
 H          3.7566913891       -2.5343852175       -2.1930618455
 O          1.4742087277       -0.3227816708       -1.7763605839
 C          1.0675653742        0.8507063238       -1.1612604375
 O          0.0426888851        1.3507412438       -1.6644231242
 O          3.6170173608        1.0285421772        1.4000654457
 C          1.3689388922        2.5837718692        0.6525916820
 C         -0.1051564094        2.4525836026        0.9481298130
 C         -1.0468517101        3.4426049745        0.7021555671
 C         -2.3877774105        3.2168164111        0.9662370555
 C         -2.8210219899        1.9950533746        1.4469946536
 C         -1.8844862990        0.9987351896        1.6977211426
 C         -0.5404773816        1.2463622283        1.4849162640
 H          0.1732508332        0.4610263116        1.6901362700
 N         -2.2615817146       -0.2893908416        2.1389216615
 S         -2.0343530653       -1.5259809221        1.0238656334
 O         -2.4886473313       -2.7276005746        1.6917471277
 O         -0.6710605217       -1.5304417729        0.5635664450
 C         -3.1705164461       -1.1213360684       -0.2907660449
 C         -4.4193448875       -1.7141306374       -0.2817228371
 C         -5.3456273013       -1.3454159143       -1.2430447552
 C         -5.0127506056       -0.3842115441       -2.1861787810
 C         -3.7573183167        0.2029841910       -2.1782239388
 C         -2.8215885834       -0.1639060573       -1.2218211810
 H         -1.8371679479        0.2788713847       -1.2042342874
 H         -3.4906678925        0.9509983391       -2.9076018407
 H         -5.7345519767       -0.0912039422       -2.9322866780
 H         -6.3214659028       -1.8037087072       -1.2518719754
 H         -4.6304980008       -2.4570333225        0.4706703432
 H         -3.2117563980       -0.3372105447        2.4825998831
 H         -3.8703756431        1.8074499274        1.6191158764
 H         -3.1080321452        3.9961201871        0.7693556924
 H         -0.7365022965        4.3854317261        0.2826811190
 H          1.9121538117        2.5303060963        1.6119833701
 C          1.7527336387        3.9095914546        0.0138783707
 C          2.8843657169        3.9971646466       -0.9650236687
 C          1.4762133887        4.2132299127       -1.4271769332
 H          1.1738827154        5.2164813907       -1.6899661770
 H          1.0034314117        3.4425208883       -2.0145368565
 H          3.5472256853        4.8476050785       -0.9074393457
 H          3.3774787296        3.0764746626       -1.2423832712
 H          1.6623540588        4.7370422883        0.7110701440
