  62
        -98.94040882
 C         -1.8329042506       -1.1296678908        0.2552878604
 C         -2.1066394709       -0.0973514519       -0.6773507707
 C         -3.5317108810        0.1812287775       -0.9267980109
 C         -4.4736248308       -0.5339468020       -0.2881149900
 C         -5.9531586909       -0.3192167225       -0.4160488701
 C         -6.4652851110        0.6685353686        0.6415730888
 C         -5.6475172113        1.9570289589        0.7327353072
 H         -4.6447539012        1.7196943696        1.0958082874
 H         -6.1202870414        2.5890189997        1.4876798365
 C         -5.5361259016        2.7339515974       -0.5865080537
 H         -5.7064053018        3.7935119176       -0.3840558549
 H         -6.3153191316        2.4072152864       -1.2762285432
 C         -4.1735112516        2.6257612769       -1.2736117237
 H         -3.3816258116        2.8629389479       -0.5582359740
 H         -4.1323596019        3.3773766460       -2.0666244746
 C         -3.8549825214        1.2684044863       -1.9127862621
 H         -2.9579430015        1.3944181958       -2.5263067524
 H         -4.6774846714        0.9665868053       -2.5645924917
 H         -6.4381098408        0.1768800198        1.6167948394
 H         -7.5046469611        0.9107820381        0.4124898286
 H         -6.4533452506       -1.2790162724       -0.2757262490
 H         -6.1764472010        0.0529412063       -1.4140783605
 O         -4.1747676605       -1.5175555209        0.5977484111
 C         -2.8603010104       -1.8220932202        0.9061088113
 O         -2.7352300301       -2.7188070892        1.7634132324
 O         -1.2285782011        0.5640568476       -1.2884166216
 C         -0.4198541305       -1.5182278500        0.6628547708
 C          0.3752285793       -0.2910186594        1.0273623293
 C          0.2678754793        0.2519010321        2.3032585786
 C          0.9895564990        1.3776936427        2.6589997873
 C          1.8247782088        1.9930385518        1.7426188065
 C          1.9212314488        1.4685191604        0.4622668071
 C          1.2166043990        0.3253542298        0.1142622085
 H          1.2982024690       -0.0701638713       -0.8861565111
 N          2.7878018586        2.0891335595       -0.4732490337
 S          4.3990348087        1.6965897601       -0.2433779834
 O          4.8164642087        2.2038347817        1.0385243160
 O          5.1097227285        2.1970796189       -1.3980234440
 C          4.4167483491       -0.0874668099       -0.2324181413
 C          4.1762719494       -0.7510571786        0.9540565894
 C          4.0840435597       -2.1336238386        0.9400937811
 C          4.2271817097       -2.8239259999       -0.2540407082
 C          4.4689151595       -2.1424391712       -1.4372165990
 C          4.5582473791       -0.7598359712       -1.4298990806
 H          4.7454339589       -0.1911225322       -2.3268461113
 H          4.5811150895       -2.6830930723       -2.3634232484
 H          4.1483930900       -3.8998980500       -0.2621189569
 H          3.8919582499       -2.6659812276        1.8580048917
 H          4.0698129893       -0.1785583275        1.8611067388
 H          2.5293848985        1.8843371283       -1.4289764834
 H          2.4061827686        2.8631959522        2.0009000054
 H          0.8999362490        1.7805381538        3.6565348968
 H         -0.3913382306       -0.2210696072        3.0184338193
 H         -0.5495760503       -2.1204132489        1.5756553815
 C          0.3189941996       -2.3994539009       -0.3348551083
 C         -0.3899587002       -3.5229620319       -1.0282383369
 C          0.0934254695       -2.3429421327       -1.8142429683
 H          0.9485944694       -2.4754588232       -2.4611701783
 H         -0.6346117407       -1.6431800933       -2.1924804791
 H          0.1224419600       -4.4659974819       -1.1416571159
 H         -1.4520499901       -3.6198946519       -0.8542366367
 H          1.3370200097       -2.5951084503       -0.0108751282
