  62
        -98.94528901
 C         -1.7374031572       -0.5185221078        0.8403889211
 C         -2.0742017792        0.0292651015       -0.4231294234
 C         -2.1628804881        1.4976710922       -0.4836529630
 C         -1.8696526385        2.2264605603        0.6068700517
 C         -1.9080307350        3.7253830318        0.6819598088
 C         -0.5490460161        4.3538096335        0.3475885487
 C          0.0763114196        3.8374658281       -0.9484098931
 H          0.3615436483        2.7892159686       -0.8338829208
 H          1.0003806978        4.3980652686       -1.1104650466
 C         -0.8209607957        3.9633609274       -2.1869488327
 H         -0.2164995737        4.3364878936       -3.0164795796
 H         -1.6122053060        4.6928096092       -2.0060677812
 C         -1.4364084431        2.6395077004       -2.6457875931
 H         -0.6560613106        1.8742462135       -2.6833007794
 H         -1.8185334121        2.7732243424       -3.6618880594
 C         -2.5919421086        2.1084160950       -1.7873645652
 H         -3.0789711495        1.3051657648       -2.3484149449
 H         -3.3230898894        2.9033491689       -1.6200360700
 H          0.1429589282        4.1478354718        1.1676814291
 H         -0.6805724435        5.4357134669        0.2800998726
 H         -2.6669908817        4.0943165271       -0.0055437180
 H         -2.1857584750        4.0076050853        1.6994437313
 O         -1.4767380975        1.6691004831        1.7816816844
 C         -1.3905511396        0.2921429268        1.9228762173
 O         -0.9942354537       -0.0793749763        3.0455805141
 H          0.8032343532       -1.1704287874        0.4065060033
 C          0.5068175848       -1.9752043580       -0.2502756765
 C         -0.7318670927       -2.5749860464       -0.0608061799
 C         -1.1012444539       -3.6158515408       -0.9006319315
 C         -0.2543097926       -4.0198459408       -1.9190838126
 C          0.9554857507       -3.3856699284       -2.1347141734
 C          1.3346658199       -2.3441235249       -1.2950375091
 N          2.5482481055       -1.6605171130       -1.4704656814
 S          2.5923522368       -0.0087841700       -1.1864367122
 O          1.3374914198        0.6304534512       -1.4987912205
 O          3.7436535535        0.4507384955       -1.9362278810
 C          2.9561437131        0.1251315210        0.5508186208
 C          2.1559348278        0.9019897475        1.3639781640
 C          2.4543492656        0.9942314361        2.7137626226
 C          3.5499700849        0.3147141014        3.2231596876
 C          4.3511368164       -0.4545092098        2.3922925856
 C          4.0539856832       -0.5528812092        1.0427124155
 H          4.6499696562       -1.1406689734        0.3647779079
 H          5.2022589848       -0.9802038410        2.7941734285
 H          3.7762455617        0.3851423482        4.2753579001
 H          1.8180553757        1.5801143261        3.3579673129
 H          1.3024344338        1.4054298508        0.9353165988
 H          3.0631571223       -1.9124983292       -2.3016864496
 H          1.5976143179       -3.6832952345       -2.9498789109
 H         -0.5526880893       -4.8267725150       -2.5713641206
 H         -2.0608174776       -4.0910595062       -0.7792179666
 C         -1.5882332134       -2.0179650615        1.0492224611
 H         -1.0178936111       -2.1130626759        1.9886337275
 C         -2.8921528261       -2.7708774442        1.2605364389
 C         -4.0986869320       -2.0797232684        1.8207522065
 C         -4.1001798965       -2.5570418234        0.4010224827
 H         -4.7075593882       -3.4152317689        0.1521515491
 H         -4.0274451468       -1.8285853117       -0.3902418119
 H         -4.0253863662       -1.0169541993        2.0021716633
 H         -4.7027279836       -2.6063321114        2.5443529503
 H         -2.7183790151       -3.7845293481        1.6088496574
 O         -2.3156071015       -0.6592154366       -1.4476409485
