  62
        -98.94415722
 C         -2.2546298588       -0.8791025020        0.3911355189
 C         -2.4393434749        0.0093743126       -0.6961054651
 C         -3.2761085925        1.1843315309       -0.4199827497
 C         -3.7703360721        1.3800683722        0.8158883091
 C         -4.6193879352        2.5416484813        1.2566259579
 C         -6.1140732139        2.3742505025        0.9501752788
 C         -6.4954317024        2.5093007816       -0.5245651470
 H         -7.5834934454        2.5888081822       -0.5673390484
 H         -6.0855069470        3.4387840165       -0.9208692576
 C         -6.0517310934        1.3319063274       -1.4040062288
 H         -5.8088252593        0.4754341519       -0.7707810041
 H         -6.8788889298        1.0277974518       -2.0493047013
 C         -4.8572080404        1.6320070551       -2.3095909620
 H         -5.1327588880        2.3977554791       -3.0379936427
 H         -4.6051279341        0.7206668752       -2.8575400387
 C         -3.6004564248        2.0980603907       -1.5629774256
 H         -2.7575254245        2.0701311797       -2.2577838727
 H         -3.7300597207        3.1207348018       -1.2094915587
 H         -6.4401558365        1.4007122377        1.3235375271
 H         -6.6492048856        3.1421043871        1.5136407119
 H         -4.4971078144        2.6231237749        2.3389668637
 H         -4.2528747345        3.4593969747        0.7957241178
 O         -3.5258878872        0.5264895292        1.8472207000
 C         -2.7804633673       -0.6266947925        1.6570256212
 O         -2.6473215323       -1.3275942726        2.6824070203
 H          0.1174118133       -0.2567765882        1.2556497379
 C          0.6338549711       -0.7768605157        0.4569719830
 C         -0.0263794237       -1.7936268333       -0.2221547983
 C          0.6542993228       -2.4646169222       -1.2293533201
 C          1.9505689262       -2.1063826354       -1.5578164909
 C          2.5952704475       -1.0798639530       -0.8932975512
 C          1.9298439639       -0.4119955675        0.1267031425
 N          2.5712021480        0.6401987256        0.8035868756
 S          4.1168900326        0.3771285107        1.4043560093
 O          4.3277817441       -1.0138554546        1.7325840661
 O          4.2663403192        1.3231017555        2.4888302253
 C          5.1845524829        0.8596679854        0.0638815282
 C          6.1420219716       -0.0174754422       -0.4065821077
 C          6.9679556526        0.3863480998       -1.4442485316
 C          6.8231967063        1.6531128800       -1.9887690166
 C          5.8581154462        2.5229323019       -1.5029423262
 C          5.0300758445        2.1260447127       -0.4652437297
 H          4.2699643453        2.7715553174       -0.0575239756
 H          5.7479304181        3.5071366302       -1.9290482455
 H          7.4662084158        1.9649726645       -2.7965835214
 H          7.7190291164       -0.2879164252       -1.8231652787
 H          6.2140099423       -0.9945820325        0.0439168443
 H          1.9912804129        1.0876543797        1.4984952642
 H          3.6017044542       -0.7938768229       -1.1513870129
 H          2.4647954461       -2.6321973022       -2.3476997389
 H          0.1688036675       -3.2662664689       -1.7609835709
 C         -1.4338166665       -2.1411803884        0.2014426802
 H         -1.3783375617       -2.6205897609        1.1905181955
 C         -2.1394278792       -3.0792589282       -0.7561817190
 C         -1.9806041124       -4.5627129402       -0.6190855530
 C         -3.2762311969       -3.9098842739       -0.2441792965
 H         -4.1350029056       -4.0591783274       -0.8813082244
 H         -3.5217013296       -3.8202611767        0.8045165518
 H         -1.9531629578       -5.1640367930       -1.5152494093
 H         -1.3490355291       -4.9270298760        0.1771886902
 H         -2.2337334930       -2.6615434835       -1.7518342876
 O         -1.9324551884       -0.1646364073       -1.8335987474
