  62
        -98.93445566
 C         -2.3933315480       -1.2438498249        0.0664884761
 C         -3.3362335434       -0.7179959095        0.9849875218
 C         -4.3830330689        0.1761088736        0.4549757171
 C         -4.3938344645        0.4420867661       -0.8640510981
 C         -5.3303937503        1.3360722401       -1.6330310901
 C         -5.0326406065        2.8294322501       -1.4267679303
 C         -4.7757712462        3.2384237239        0.0210402769
 H         -4.4847234196        4.2921719948        0.0208643773
 H         -3.9293845093        2.6691031053        0.4095728367
 C         -5.9682130391        3.0830445649        0.9619446235
 H         -6.8061094888        3.6695910644        0.5788115385
 H         -5.6774605154        3.5097208505        1.9252195231
 C         -6.4467273145        1.6497191572        1.2053465344
 H         -7.0460123336        1.2870530886        0.3744525681
 H         -7.1068866018        1.6710753869        2.0772478928
 C         -5.3353777053        0.6548325430        1.5240524543
 H         -5.7876011345       -0.2536165687        1.9396374922
 H         -4.7108818651        1.0575520191        2.3295459349
 H         -5.8685910826        3.4051513129       -1.8278015013
 H         -4.1412950360        3.0799580547       -2.0073861439
 H         -6.3602197509        1.1084265436       -1.3741816023
 H         -5.1926470718        1.0969096715       -2.6899741195
 O         -3.4647401831       -0.0816466418       -1.7127882632
 C         -2.4504668370       -0.9244532954       -1.2896756196
 O         -1.6965251782       -1.2964530001       -2.2102761335
 O         -3.3116409572       -0.9900336681        2.2154927000
 C         -1.3432933861       -2.1832282590        0.6323789985
 C         -0.0513548440       -1.4691447725        0.9352980682
 C          0.5732920773       -1.6118054211        2.1685188624
 C          1.7784228681       -0.9809163295        2.4249712057
 C          2.3846533727       -0.1987906634        1.4583427832
 C          1.7672740428       -0.0479467772        0.2235175941
 C          0.5577869501       -0.6775220838       -0.0288367116
 H          0.0891296559       -0.5674091188       -0.9962349526
 N          2.3838940052        0.7420694665       -0.7696835715
 S          3.8920681618        0.2005996800       -1.2903631874
 O          4.0605527300        0.7424140296       -2.6207503465
 O          4.0057658806       -1.2340996095       -1.1594272529
 C          5.0328954955        1.0051982844       -0.1854259374
 C          5.0431456420        2.3860916066       -0.1535603842
 C          5.9248815118        3.0284951715        0.7008753818
 C          6.7779407112        2.2836173108        1.5019382466
 C          6.7581787633        0.8980405191        1.4548568091
 C          5.8777244477        0.2489317400        0.6031353806
 H          5.8214722326       -0.8257375494        0.5361856226
 H          7.4224924338        0.3210230354        2.0778519034
 H          7.4626059229        2.7864147419        2.1665807200
 H          5.9437372377        4.1057285783        0.7399587837
 H          4.3667496571        2.9254978408       -0.7955264732
 H          1.7878951059        0.8871458303       -1.5734731817
 H          3.3234697844        0.2941404173        1.6510892484
 H          2.2516275158       -1.0999626795        3.3874964365
 H          0.1032945288       -2.2165649176        2.9302121095
 H         -1.7655496823       -2.5214328369        1.5918551542
 C         -1.1338459024       -3.4218962940       -0.2304852009
 C          0.1156819055       -3.7025459114       -1.0055906025
 C         -0.1982143537       -4.5046425568        0.2196509418
 H         -0.5013792630       -5.5340304141        0.1038257509
 H          0.3947378412       -4.3127873098        1.1011754093
 H          0.0067171140       -4.1648554049       -1.9752019520
 H          0.9289851569       -2.9941141982       -0.9599544938
 H         -2.0600378989       -3.7459933439       -0.6953667988
