  62
        -98.93735103
 C          1.8565950607        1.3146561100       -0.1880305994
 C          2.2208767106        0.0954370200       -0.8034008895
 C          3.6444484106       -0.2969334001       -0.7135293993
 C          4.5034079706        0.5082287997       -0.0622836190
 C          5.9704578105        0.2937528595        0.1996753112
 C          6.2271883302       -0.7327827306        1.3146460911
 C          5.3735283501       -1.9956977005        1.2348456408
 H          5.5745756399       -2.5895584907        2.1304350008
 H          4.3179136201       -1.7185744004        1.2615211807
 C          5.6345611502       -2.8819059504        0.0191983407
 H          6.6842589702       -3.1838965005        0.0141241409
 H          5.0299909601       -3.7844934104        0.1404555105
 C          5.2985774205       -2.2671166002       -1.3412412392
 H          5.2911193905       -3.0803569101       -2.0730167093
 H          6.0709356506       -1.5726978602       -1.6608758190
 C          3.9279682406       -1.6018262101       -1.4181672494
 H          3.6859863908       -1.4239811799       -2.4732945294
 H          3.1656846205       -2.3068236400       -1.0663064096
 H          6.0175154301       -0.2503911507        2.2724481311
 H          7.2841617702       -1.0036068307        1.2972163613
 H          6.3763768805        1.2575083995        0.5147986614
 H          6.4763432806        0.0051163696       -0.7167077588
 O          4.1048892706        1.6775047197        0.5159686210
 C          2.7946870506        2.1056626198        0.4779422509
 O          2.5896471106        3.1909598198        1.0584930410
 O          1.4100372107       -0.6539622298       -1.4088033697
 C          0.4189916607        1.8139104401       -0.1865742996
 C         -0.3817805595        0.9386329201        0.7467182402
 C         -0.3359163897        1.2087632699        2.1129253902
 C         -1.0008334300        0.4020217899        3.0155507700
 C         -1.7349689800       -0.6847782700        2.5729971597
 C         -1.7823439798       -0.9679202098        1.2132170797
 C         -1.1097470996       -0.1565350498        0.3074452599
 H         -1.1304699094       -0.4204182197       -0.7362241301
 N         -2.5003673798       -2.0816092797        0.7480686394
 S         -3.5205790196       -1.9535024494       -0.5696655707
 O         -4.3324795597       -3.1495485394       -0.5097596410
 O         -2.7697991994       -1.7512799294       -1.7809140706
 C         -4.5250795595       -0.5233299294       -0.2152604707
 C         -4.1180371893        0.7184969106       -0.6588356505
 C         -4.8740423493        1.8298824307       -0.3206207605
 C         -6.0164997994        1.6814237607        0.4502404993
 C         -6.4139180696        0.4259583407        0.8853524391
 C         -5.6599944997       -0.6881697994        0.5549958691
 H         -5.9375246098       -1.6831104694        0.8633939689
 H         -7.3056430797        0.3132309707        1.4806304489
 H         -6.6015077294        2.5493827707        0.7105083093
 H         -4.5647100491        2.8052704707       -0.6607657703
 H         -3.2266685892        0.7961440106       -1.2584601703
 H         -2.9372738900       -2.6260064597        1.4777158193
 H         -2.2553035502       -1.3184618500        3.2751959496
 H         -0.9531704301        0.6224312897        4.0711801200
 H          0.2465283503        2.0526522498        2.4560295304
 H          0.4604898907        2.8206853201        0.2511898406
 C         -0.1494925290        1.9257495104       -1.5848244597
 C         -1.2900370889        2.8644754605       -1.8363272297
 C          0.0790286512        3.1942897804       -2.3489345795
 H          0.2630726314        3.1300006105       -3.4109506094
 H          0.6358972212        3.9786322703       -1.8567380793
 H         -2.0454895888        2.5795370007       -2.5532544299
 H         -1.6637474390        3.4295949504       -0.9957383797
 H         -0.1172882590        0.9998572204       -2.1451905898
