  62
        -98.93482808
 C         -2.4190842204       -0.8636295512        0.8154451089
 C         -2.9684248105       -0.5313501018       -0.4488230112
 C         -3.9600381409        0.5588751078       -0.4495401116
 C         -4.2490482012        1.1972327981        0.6977251682
 C         -5.2124326516        2.3405068078        0.8289633977
 C         -4.5077910421        3.6921427280        0.6492326374
 C         -3.6181865520        3.7646841979       -0.5917551326
 H         -3.1996498524        4.7725572780       -0.6336956829
 H         -2.7805891218        3.0735312782       -0.4719600023
 C         -4.3415067418        3.4564550072       -1.9100728926
 H         -5.4194435819        3.5495647569       -1.7725504527
 H         -4.0446393720        4.1981994371       -2.6544913328
 C         -4.0234431313        2.0814580771       -2.5004667021
 H         -2.9401915212        1.9448889275       -2.5529905520
 H         -4.4054573612        2.0546678967       -3.5245313121
 C         -4.6245455809        0.8811722272       -1.7587087418
 H         -5.6964477110        1.0357969868       -1.6172795219
 H         -4.4844819005       -0.0007707330       -2.3908304515
 H         -5.2686106423        4.4732466977        0.5998515471
 H         -3.8860500322        3.8782462585        1.5279543073
 H         -6.0008147915        2.2287615873        0.0869978177
 H         -5.6560434416        2.3019204879        1.8254191377
 O         -3.6500826811        0.8962041687        1.8784888283
 C         -2.7254136308       -0.1304187310        1.9656621287
 O         -2.2465339408       -0.2866362204        3.1074734188
 H          0.6228247094       -0.3169008001        1.0350138590
 C          0.6789249597       -0.9714130903        0.1733009692
 C         -0.3174229700       -1.9209027107       -0.0162012506
 C         -0.2370425696       -2.7588188811       -1.1202091903
 C          0.8084292404       -2.6327360210       -2.0178178603
 C          1.7964145000       -1.6838305605       -1.8292480505
 C          1.7320826197       -0.8481973302       -0.7219051408
 N          2.7405631093        0.1146714102       -0.5210338810
 S          4.3303702595       -0.4211497493       -0.7432632008
 O          4.6582755596       -0.3019223696       -2.1419519608
 O          4.4917395300       -1.7370712390       -0.1672152703
 C          5.2514808690        0.7807529713        0.1964689189
 C          5.6181822386        1.9690486713       -0.4061780714
 C          6.3223980582        2.9051548818        0.3344298483
 C          6.6455261683        2.6396325423        1.6568757584
 C          6.2709806886        1.4421247524        2.2477538788
 C          5.5658366390        0.5019299219        1.5132540390
 H          5.2646200794       -0.4466912181        1.9284177493
 H          6.5263350187        1.2368276728        3.2749257988
 H          7.1959591480        3.3686767927        2.2303166682
 H          6.6184381479        3.8360414017       -0.1216325820
 H          5.3545051386        2.1272516309       -1.4388685815
 H          2.6384922591        0.5925172505        0.3640390988
 H          2.6212809000       -1.5839336405       -2.5167613905
 H          0.8556749707       -3.2833113712       -2.8782798501
 H         -1.0077889693       -3.4928427214       -1.2881751801
 C         -1.4298086500       -2.0028346008        0.9994164294
 H         -0.9854939902       -1.8285784403        1.9929315393
 C         -2.0711444295       -3.3822908510        1.0556608498
 C         -3.3848252895       -3.5827982213        1.7492936798
 C         -3.2860434693       -3.7587413017        0.2651770898
 H         -3.3405242590       -4.7606460619       -0.1352530499
 H         -3.7264525996       -3.0106860321       -0.3741640305
 H         -3.8851368698       -2.7029994313        2.1279611094
 H         -3.5133378492       -4.4585378811        2.3673126800
 H         -1.3268384893       -4.1600142307        1.1995761001
 O         -2.6727256502       -1.1081396621       -1.5255096610
