  62
        -98.93432049
 C         -2.3217633699       -1.1807395340        0.0834330523
 C         -3.2574932665       -0.5272856318        0.9202011876
 C         -4.1476214932        0.4692135456        0.2929341794
 C         -3.9962385532        0.7325886424       -1.0182093157
 C         -4.7511978769        1.7225000054       -1.8650515224
 C         -4.3065044403        3.1733336000       -1.6203900484
 C         -4.1257717848        3.5511673218       -0.1525116139
 H         -3.3907911729        2.8839263168        0.3020798737
 H         -3.7095283535        4.5615659501       -0.1183124282
 C         -5.4034708943        3.5442701868        0.6835189335
 H         -5.1433256824        3.9214605014        1.6759972545
 H         -6.1229513572        4.2382894912        0.2434426958
 C         -6.0829807122        2.1841480412        0.8570100551
 H         -6.6411144179        1.9070024227       -0.0332337611
 H         -6.8157493478        2.2873935960        1.6626687572
 C         -5.1460912628        1.0513065403        1.2644676720
 H         -5.7524338908        0.2036308393        1.6066244690
 H         -4.5679864176        1.3615529851        2.1427047736
 H         -5.0360189961        3.8403277457       -2.0826509567
 H         -3.3473074362        3.3215985927       -2.1224431718
 H         -4.5425159161        1.4664711189       -2.9061169971
 H         -5.8195621781        1.6123706786       -1.7046918849
 O         -3.0427164657        0.1192334556       -1.7745227817
 C         -2.1845206505       -0.8399393241       -1.2625820273
 O         -1.3721949772       -1.2865001206       -2.0923514306
 O         -3.3466562346       -0.7577733026        2.1574397175
 C         -1.4091459636       -2.2150935166        0.7156767887
 C          0.0244607918       -1.9648078254        0.3179113051
 C          0.8359200711       -2.9152671810       -0.2858511767
 C          2.1472561220       -2.6124341991       -0.6098140632
 C          2.6759106878       -1.3635016097       -0.3442333043
 C          1.8744993944       -0.4045037864        0.2621006571
 C          0.5657453167       -0.7147391771        0.5956989087
 H         -0.0587635353        0.0338618680        1.0699440288
 N          2.3973766294        0.8758087665        0.5179716382
 S          3.8563738391        0.9893631764        1.3408220298
 O          4.0430885739       -0.1248350807        2.2416082789
 O          3.8480842421        2.3053623312        1.9420763305
 C          5.0848177785        0.9455700933        0.0533614108
 C          4.9993587032        1.8779943766       -0.9618409986
 C          5.9507389486        1.8586847312       -1.9691453011
 C          6.9673202355        0.9154124789       -1.9423926973
 C          7.0421224879       -0.0106093316       -0.9132559852
 C          6.0928704478        0.0024292905        0.0968888732
 H          6.1064119160       -0.7017645260        0.9134357517
 H          7.8335087070       -0.7425337905       -0.8938884220
 H          7.7053253139        0.9021349846       -2.7288224036
 H          5.8956657917        2.5771049255       -2.7711660009
 H          4.1956645328        2.5952194028       -0.9446642091
 H          1.7227154418        1.5212898847        0.9019506779
 H          3.6937974426       -1.1229369303       -0.6037760969
 H          2.7646463117       -3.3595959939       -1.0846877234
 H          0.4376759056       -3.8879855064       -0.5220618315
 H         -1.4919001023       -2.0228233773        1.7994757420
 C         -1.8543495946       -3.6541113409        0.5014365329
 C         -3.2924255629       -3.9897331280        0.2453085882
 C         -2.2762131244       -4.1719798895       -0.8398071185
 H         -1.9945055187       -5.1787721450       -1.1116534607
 H         -2.2718268202       -3.4785221586       -1.6657389314
 H         -3.7056265735       -4.8673204041        0.7195614227
 H         -3.9913779105       -3.1702056216        0.1596825308
 H         -1.3106253367       -4.3433802699        1.1404378695
