  62
        -98.92935443
 C         -2.0216291294       -1.1601720402        0.2939673395
 C         -2.7426405596       -0.3583509302        1.2132268694
 C         -4.0762425596        0.1075579796        0.8000683093
 C         -4.5298910496       -0.2055571207       -0.4278172406
 C         -5.8472779196        0.0953219290       -1.1113217907
 C         -6.7970428898        1.1497360989       -0.5489851408
 C         -6.2765739900        2.5849076190       -0.6212440611
 H         -6.9893564501        3.2328551290       -0.1063913912
 H         -6.2460687901        2.8914331088       -1.6698786311
 C         -4.8853742701        2.8134687093       -0.0353648911
 H         -4.6420627902        3.8728237193       -0.1556149913
 H         -4.1474621800        2.2489366893       -0.6094959410
 C         -4.7336721400        2.4673763996        1.4446770189
 H         -5.4908149201        2.9975222995        2.0257609489
 H         -3.7526558700        2.8271623998        1.7670981289
 C         -4.8116509998        0.9691014396        1.7859370092
 H         -5.8429357897        0.6398808795        1.8880238692
 H         -4.3219124497        0.8180520998        2.7523065892
 H         -7.0796742898        0.8983194691        0.4690263292
 H         -7.7082257398        1.0997929187       -1.1513382508
 H         -6.3813478195       -0.8601431611       -1.1594195105
 H         -5.5926411197        0.3569967689       -2.1432907007
 O         -3.7899077795       -0.9565821907       -1.2913292605
 C         -2.5319796394       -1.4505644205       -0.9714064205
 O         -2.0098859293       -2.1050742705       -1.8887245504
 O         -2.2915778896       -0.0466479299        2.3497782093
 C         -0.6446030494       -1.6444791799        0.7317401996
 C          0.4097074405       -1.0486525899       -0.1671449005
 C          0.8644823906       -1.6011387800       -1.3589260205
 C          1.8050503705       -0.9383481400       -2.1298343606
 C          2.3153020403        0.2857071602       -1.7405853208
 C          1.8659798602        0.8533759803       -0.5553118109
 C          0.9310336203        0.1834449503        0.2189463392
 H          0.5800351803        0.6378409503        1.1368022992
 N          2.3833459400        2.0940990904       -0.1422285611
 S          4.0478809500        2.2773414707       -0.1865527611
 O          4.3511170699        3.2556006209        0.8343901187
 O          4.4625750100        2.6163918205       -1.5250092312
 C          4.6953052503        0.6758569308        0.2609626891
 C          5.4459032104       -0.0439104692       -0.6458075708
 C          5.8952951206       -1.3060513691       -0.2914192206
 C          5.5829963407       -1.8255099289        0.9550363595
 C          4.8313029406       -1.0879740589        1.8571700294
 C          4.3816057604        0.1750170310        1.5091483592
 H          3.7996080703        0.7758018410        2.1896760291
 H          4.5892222406       -1.4938270888        2.8262237395
 H          5.9266548808       -2.8110406388        1.2268177497
 H          6.4818867807       -1.8809420991       -0.9897444705
 H          5.6621461403        0.3959925607       -1.6056688908
 H          2.0023563500        2.4255222705        0.7318413189
 H          3.0393657402        0.8155822702       -2.3380286309
 H          2.1398617806       -1.3836457601       -3.0543404505
 H          0.4599473308       -2.5312824401       -1.7144376103
 H         -0.5115793994       -1.1668198497        1.7149680995
 C         -0.6164763191       -3.1396567299        1.0229308898
 C         -0.6969951190       -4.2438459100        0.0135200000
 C          0.5764407510       -4.0114634197        0.7687995099
 H          0.8563190311       -4.7265266895        1.5279039400
 H          1.4112883609       -3.5785552397        0.2405743498
 H         -1.2948152488       -5.1061078401        0.2745603801
 H         -0.7619122190       -3.9873538802       -1.0301925701
 H         -1.1560637991       -3.3353951298        1.9467439698
