  62
        -98.94011716
 C          2.0378981140        0.6232805423        0.9983776210
 C          2.8694351221        1.1650135680       -0.0132023178
 C          4.2637670880        0.6901699745       -0.0159020972
 C          4.6659636426       -0.2052131172        0.9027222045
 C          6.0347586181       -0.8170886314        0.9661066556
 C          6.0986983981       -2.1192505672        0.1555414663
 C          5.5299631104       -1.9962726122       -1.2581980689
 H          5.6571799106       -2.9658006959       -1.7448322055
 H          4.4555254110       -1.8083168059       -1.1952507042
 C          6.1867496608       -0.9042709811       -2.1142240075
 H          6.3850949103       -1.3110749627       -3.1081398002
 H          7.1479059580       -0.6230715086       -1.6822073495
 C          5.3318133881        0.3493347985       -2.3081172254
 H          5.7898460180        0.9542931339       -3.0951710284
 H          4.3356913469        0.0623690126       -2.6540986344
 C          5.1742776104        1.2469180000       -1.0743594076
 H          6.1570924246        1.4742583720       -0.6567248881
 H          4.7143500027        2.1834739236       -1.4030402632
 H          5.5304961939       -2.8863911780        0.6869963516
 H          7.1399560500       -2.4428247136        0.1040142831
 H          6.7643237762       -0.1044135437        0.5863503461
 H          6.2651778019       -1.0378484137        2.0097792273
 O          3.8414359432       -0.6981266493        1.8625366877
 C          2.5163525257       -0.3058028508        1.9264635493
 O          1.8688898806       -0.8396625574        2.8507048972
 H         -1.5620191909       -0.4769466707        1.9299967858
 C         -1.3609396528       -0.5914315773        0.8733004112
 C         -0.2874569078        0.0795388410        0.3065772508
 C         -0.0348828590       -0.0910642538       -1.0510941960
 C         -0.8328400610       -0.9231571630       -1.8148119118
 C         -1.9019411417       -1.5927928908       -1.2452408811
 C         -2.1674160303       -1.4224034363        0.1064970288
 N         -3.2826660126       -2.0708078238        0.6755703898
 S         -4.7635681160       -1.6817681249       -0.0154287196
 O         -5.7520126770       -1.9770035352        0.9965101379
 O         -4.9032801207       -2.3819390739       -1.2663869024
 C         -4.6478347460        0.0748877827       -0.2991289241
 C         -4.8079807439        0.9211844488        0.7803381122
 C         -4.6149076901        2.2811522087        0.6007229894
 C         -4.2523541741        2.7676885144       -0.6460789417
 C         -4.0998981507        1.9055525597       -1.7203841249
 C         -4.2987901040        0.5448621171       -1.5490415970
 H         -4.1925745716       -0.1570408177       -2.3594481059
 H         -3.8193803579        2.2873381896       -2.6888038303
 H         -4.0847670939        3.8243688916       -0.7792692157
 H         -4.7377883426        2.9558896872        1.4327173235
 H         -5.0903424463        0.5044704873        1.7342014778
 H         -3.3334217336       -1.9695916262        1.6794692015
 H         -2.5388574978       -2.2401330390       -1.8262764369
 H         -0.6221680709       -1.0507982683       -2.8658405375
 H          0.7890943381        0.4425092640       -1.4996632702
 C          0.5697229879        0.9860754046        1.1514479351
 H          0.3340044778        0.7745270240        2.2063336407
 C          0.2823159204        2.4628382533        0.9102002451
 C         -0.5665627429        2.9701561523       -0.2133606736
 C         -1.0895389418        3.0025849430        1.1888144322
 H         -1.1794260335        3.9534125593        1.6913313559
 H         -1.8580516835        2.2891823117        1.4472569219
 H         -0.9946900757        2.2544646176       -0.8972916846
 H         -0.2685666307        3.8958981648       -0.6807079229
 H          1.1187792696        3.0897796338        1.1995386101
 O          2.4905755109        1.9968912350       -0.8756978613
