  62
        -98.94375233
 C          1.8406602112        1.0996144394        0.0562923776
 C          2.2803820707        0.0327488586       -0.7635499816
 C          3.7352022207       -0.0676518618       -0.9536192119
 C          4.5410989710        0.8442269384       -0.3793692628
 C          6.0404777010        0.8250071180       -0.4420402331
 C          6.6339000411        0.0463647088        0.7405493874
 C          5.9938501708       -1.3243578509        0.9608285386
 H          6.5104350509       -1.7934441903        1.8009780389
 H          4.9518630109       -1.1885677204        1.2595241687
 C          6.0513572803       -2.2550840818       -0.2585054007
 H          6.8087062003       -1.9017321426       -0.9592062511
 H          6.3561235502       -3.2496897416        0.0738612600
 C          4.7198506601       -2.4203754821       -0.9937614703
 H          4.8194466498       -3.2536230627       -1.6946637296
 H          3.9356077102       -2.6862802914       -0.2801251199
 C          4.2450777202       -1.2024593326       -1.7965359511
 H          3.3986287000       -1.5207807829       -2.4124891207
 H          5.0440425102       -0.8637937833       -2.4594154015
 H          7.7056400810       -0.0734124716        0.5722451773
 H          6.4962312414        0.6381938396        1.6484021170
 H          6.3996374412        1.8547712880       -0.4044709539
 H          6.3544272607        0.3749494172       -1.3817173328
 O          4.0777943714        1.8715505591        0.3775085265
 C          2.7226845515        2.0179655496        0.6252458367
 O          2.4336051519        2.9863149402        1.3567962660
 O          1.5024765204       -0.7957157816       -1.3058303808
 C          0.3586533313        1.2810025999        0.3300102878
 C         -0.2265933189        0.0138621005        0.9035775789
 C          0.4486250812       -0.6353639689        1.9342101793
 C         -0.0456486090       -1.8062332283        2.4743101503
 C         -1.2302417192       -2.3485926384        2.0086376510
 C         -1.9240862293       -1.6974298490        0.9951658506
 C         -1.4257686191       -0.5182366796        0.4559264096
 H         -1.9665381092       -0.0430585701       -0.3446462207
 N         -3.1459139895       -2.2036120891        0.5509974513
 S         -4.0352451196       -1.6157820899       -0.7184498290
 O         -5.1640100998       -2.5193118497       -0.7957344881
 O         -3.2609285399       -1.4786767710       -1.9291449993
 C         -4.6006012691       -0.0171022993       -0.1698042901
 C         -4.7800301491        0.9794832200       -1.1082238409
 C         -5.2564058888        2.2144580804       -0.6972406117
 C         -5.5438103884        2.4312939015        0.6411478982
 C         -5.3608532984        1.4199578022        1.5715642689
 C         -4.8890285988        0.1818650518        1.1656578098
 H         -4.7370234788       -0.6217571477        1.8666239104
 H         -5.5840983482        1.5919963530        2.6122356088
 H         -5.9112094381        3.3939077318        0.9599578675
 H         -5.3989156187        3.0019120499       -1.4200577023
 H         -4.5352526494        0.7701828291       -2.1377791208
 H         -3.4196365696       -3.1157199688        0.8773152720
 H         -1.6130285193       -3.2688167180        2.4221464718
 H          0.4967967111       -2.3050119578        3.2635668606
 H          1.3774424713       -0.2145536088        2.2956837387
 H          0.2844611516        2.0698576205        1.0932765272
 C         -0.3431007689        1.7548331291       -0.9260345024
 C         -1.5525207687        2.6343229194       -0.8324557729
 C         -0.2479187787        3.2015335088       -1.3034410936
 H         -0.1401054488        3.4563234879       -2.3470940138
 H          0.3021779816        3.8494069192       -0.6364169742
 H         -2.3426184989        2.4973860391       -1.5550507126
 H         -1.8999238784        2.9064329303        0.1527093370
 H         -0.3030896592        1.0238175485       -1.7265766619
