  62
        -98.95212169
 C         -2.3591613675       -0.3283718354        0.0421785581
 C         -1.5157230314        0.2364232043       -0.9423007326
 C         -1.5103240041        1.7023991708       -1.0234907651
 C         -2.2837433297        2.4095945716       -0.1799851311
 C         -2.3896884215        3.9069643757       -0.1614038709
 C         -1.3951249783        4.5426113499        0.8180601645
 C          0.0412361675        4.0442231488        0.6580963172
 H          0.6600572313        4.6082944464        1.3604132998
 H          0.1002023394        2.9961312050        0.9611365163
 C          0.6144678839        4.1910449723       -0.7582655446
 H          0.0323847041        4.9205815868       -1.3235228560
 H          1.6334871933        4.5761788114       -0.6804606855
 C          0.6942449693        2.8778384892       -1.5392152884
 H          1.3531938840        3.0292409595       -2.3986899269
 H          1.1498605879        2.1152485463       -0.9024084848
 C         -0.6386582233        2.3350841724       -2.0714404357
 H         -0.4131986646        1.5418776910       -2.7902751837
 H         -1.1772073602        3.1291834625       -2.5937917621
 H         -1.4234003017        5.6256296913        0.6798831649
 H         -1.7205682446        4.3215386216        1.8373583928
 H         -3.4036243692        4.1712789416        0.1455007896
 H         -2.2152176931        4.2863755717       -1.1666714959
 O         -3.0628790083        1.8330507991        0.7716563093
 C         -3.1058635400        0.4563416939        0.9184966776
 O         -3.8419606559        0.0579835915        1.8458776287
 O         -0.8135306426       -0.4541705285       -1.7278732215
 C         -2.4441019209       -1.8377910969        0.1835603186
 C         -1.0620554126       -2.4278569714        0.3225557771
 C         -0.6608771768       -3.5948067496       -0.3164449729
 C          0.6299867570       -4.0707459990       -0.1634493494
 C          1.5514546631       -3.3849135909        0.6065231720
 C          1.1557509170       -2.2231647768        1.2590199935
 C         -0.1489766039       -1.7740659209        1.1397443774
 H         -0.4430743638       -0.8719177072        1.6564778495
 N          2.0592438494       -1.4725061878        2.0404802288
 S          2.3864251879        0.0920431112        1.5330475110
 O          3.3587698440        0.5965118619        2.4793297082
 O          1.1609119091        0.8376955153        1.4198378808
 C          3.1694835224       -0.1105362685       -0.0577076453
 C          4.5461207321       -0.0095084136       -0.1277422308
 C          5.1757472642       -0.2219626723       -1.3429268405
 C          4.4213515609       -0.5407056563       -2.4623173064
 C          3.0421374863       -0.6432600668       -2.3733948975
 C          2.4030063076       -0.4285944297       -1.1612049993
 H          1.3288454372       -0.4985621913       -1.0808395058
 H          2.4470083872       -0.8899907464       -3.2379212336
 H          4.9097507108       -0.7091772519       -3.4091994221
 H          6.2485427762       -0.1403879837       -1.4126375342
 H          5.0888433893        0.2428757756        0.7689826350
 H          2.9332529686       -1.9485538123        2.2191682383
 H          2.5665577931       -3.7398941885        0.7029650250
 H          0.9276566315       -4.9776163144       -0.6672451496
 H         -1.3579908522       -4.1289395363       -0.9411826594
 H         -2.9980993939       -2.0277756078        1.1149717975
 C         -3.2275007315       -2.4173305600       -0.9778189651
 C         -4.0624378096       -3.6479666925       -0.7933263078
 C         -4.7219274279       -2.3131858157       -0.9623822510
 H         -5.2343434114       -2.1015560314       -1.8888301550
 H         -5.1743831833       -1.8485433874       -0.0980763859
 H         -4.1273484175       -4.3546004083       -1.6069651707
 H         -4.0800273074       -4.0987059815        0.1874627458
 H         -2.7266508971       -2.2732224310       -1.9284678780
