  62
        -98.95112513
 C         -1.9821896001       -0.9347594696        0.1112897208
 C         -1.5058925504       -1.8526311707       -0.8567269383
 C         -0.4520299511       -2.7733304709       -0.4095056074
 C         -0.0371139514       -2.7272582402        0.8693603527
 C          1.0505132180       -3.5804208504        1.4536250437
 C          2.4192142384       -2.8921081212        1.3640626635
 C          2.7546024291       -2.3501148225       -0.0253084068
 H          2.0884720896       -1.5187150423       -0.2670770176
 H          3.7651696393       -1.9368016330        0.0211978232
 C          2.6780331788       -3.3870993633       -1.1542278460
 H          2.7206662381       -4.3960878830       -0.7411266852
 H          3.5489946890       -3.2614721243       -1.8008818459
 C          1.4419128191       -3.2503510433       -2.0460436765
 H          1.3328912198       -2.2056252034       -2.3518428273
 H          1.6063944290       -3.8416288141       -2.9513693660
 C          0.1182222687       -3.7196515620       -1.4268677965
 H         -0.6225259911       -3.7791221722       -2.2299514666
 H          0.2438488280       -4.7180724418       -1.0014819357
 H          2.4374301887       -2.0555381607        2.0662119029
 H          3.1837237279       -3.6098168515        1.6672562943
 H          1.0766441675       -4.5331657008        0.9283110044
 H          0.8149836076       -3.7614761294        2.5038311738
 O         -0.5505603811       -1.8648475492        1.7822591019
 C         -1.4998417405       -0.9175183889        1.4195037709
 O         -1.8231574903       -0.1441646380        2.3403757203
 O         -1.9451059601       -1.8985488713       -2.0378251784
 C         -2.9823425794        0.1277893506       -0.3146756203
 C         -2.2982457786        1.4721362203       -0.2394951611
 C         -2.7684072482        2.5462609611        0.5036033879
 C         -2.0415532675        3.7233953307        0.5627744672
 C         -0.8322897873        3.8472459095       -0.0963130425
 C         -0.3568725677        2.7810543887       -0.8530099716
 C         -1.1042757784        1.6174273591       -0.9371552509
 H         -0.7364010187        0.7968052584       -1.5362957802
 N          0.8660797325        2.8742304474       -1.5420776713
 S          2.0022260418        1.6506745268       -1.4573419501
 O          3.1607341823        2.1899054457       -2.1346146301
 O          1.4595265112        0.4297682468       -1.9926624093
 C          2.3711138412        1.4569320980        0.2760550502
 C          3.5497806714        1.9699097677        0.7809765301
 C          3.8150591809        1.8325736185        2.1340932803
 C          2.8976031503        1.1984065597        2.9586753105
 C          1.7150658502        0.6951543400        2.4383681706
 C          1.4505426106        0.8218052191        1.0843957604
 H          0.5395616305        0.4341229193        0.6560949605
 H          0.9850875997        0.2075250009        3.0665060908
 H          3.1025821100        1.0935927304        4.0124327107
 H          4.7341197510        2.2210782583        2.5423452403
 H          4.2341691018        2.4532388367        0.1027494900
 H          1.3217467530        3.7713604872       -1.4532086319
 H         -0.2593012768        4.7596421893       -0.0305725631
 H         -2.4154080172        4.5514545914        1.1454403065
 H         -3.6964695784        2.4596521321        1.0437420477
 H         -3.2007721292       -0.0857414301       -1.3715089002
 C         -4.2670523897        0.0408201020        0.4787111294
 C         -5.5383587292        0.5862424823       -0.0979979513
 C         -5.3424674501       -0.8947327878        0.0172984199
 H         -5.9087037306       -1.4355095469        0.7606061401
 H         -5.1565337002       -1.4596438685       -0.8847332497
 H         -6.2441864791        1.0619211432        0.5658202181
 H         -5.4908293487        1.0281279815       -1.0818804617
 H         -4.1081780899        0.1295534127        1.5469728794
