  62
        -98.93736585
 C         -1.9790621991       -1.0007515452        0.0061734291
 C         -2.3242406782       -0.0201947344        0.9634077984
 C         -2.4273515401        1.3576534181        0.4679394268
 C         -2.1633993754        1.6191798811       -0.8250175551
 C         -2.1391976464        2.9747615080       -1.4817461829
 C         -3.4802485013        3.7309497879       -1.5489910085
 C         -3.7144824005        4.7074799723       -0.3898448898
 H         -2.7476304474        5.0001855657        0.0214520391
 H         -4.1767191825        5.6149704098       -0.7833282292
 C         -4.6169713862        4.1986971696        0.7380469471
 H         -5.6587841383        4.2577897293        0.4153345107
 H         -4.4972535427        4.8702472861        1.5908038711
 C         -4.3620247521        2.7636256834        1.1991302958
 H         -4.7626915909        2.0636280805        0.4622470486
 H         -4.9224803419        2.5964908821        2.1209958304
 C         -2.8787873454        2.4156545952        1.4326176152
 H         -2.2527829701        3.3029733252        1.3459461276
 H         -2.7440827346        1.9998147549        2.4334459663
 H         -3.4730902946        4.3015022180       -2.4789793604
 H         -4.2975440666        3.0135589145       -1.6156926461
 H         -1.3961794876        3.5914764089       -0.9699839957
 H         -1.7767325660        2.7956729239       -2.4962062102
 O         -1.8323488449        0.6449026322       -1.7161572104
 C         -1.7188911257       -0.6787926978       -1.3259881512
 O         -1.4002884623       -1.4606422417       -2.2430846251
 H          0.4065433061       -0.9911212194        0.8916464056
 C          0.6527994647       -1.9507314181        0.4590081794
 C         -0.3610301170       -2.8561522748        0.1716377744
 C         -0.0152879174       -4.0893338801       -0.3652628866
 C          1.3090465743       -4.3854463107       -0.6398922268
 C          2.3082383541       -3.4607685977       -0.4005116465
 C          1.9740028104       -2.2313735705        0.1574412326
 N          2.9612685083       -1.2690366103        0.4374884737
 S          2.5475318396        0.3592933545        0.2557876358
 O          1.8977451872        0.8096193710        1.4624686610
 O          1.8271099096        0.5669707653       -0.9801902397
 C          4.1743742625        1.0844400001        0.1548066621
 C          4.7024529380        1.4001236631       -1.0826257020
 C          5.9806273486        1.9325692717       -1.1501816862
 C          6.7060029465        2.1356638599        0.0141450570
 C          6.1624493665        1.8141335643        1.2491962053
 C          4.8847099156        1.2828206658        1.3239054852
 H          4.4159381588        1.0260749956        2.2594814483
 H          6.7282110692        1.9757712515        2.1524296699
 H          7.7002905869        2.5497136455       -0.0414134926
 H          6.4037752716        2.1862615895       -2.1087221154
 H          4.0970375695        1.2308339848       -1.9589003596
 H          3.8438138619       -1.4756759664       -0.0111932158
 H          3.3363913359       -3.6838065046       -0.6417110365
 H          1.5637131565       -5.3443264149       -1.0652941398
 H         -0.7837676452       -4.8128209028       -0.5830605191
 C         -1.7833230294       -2.4372042858        0.4551590995
 H         -1.9310315677       -2.4268035172        1.5459949694
 C         -2.8195079301       -3.3464132538       -0.1713420433
 C         -3.2853329177       -4.5748195457        0.5503087641
 C         -4.1947505276       -3.3911411377        0.4220766700
 H         -5.0414979329       -3.4574778839       -0.2443682954
 H         -4.3742666808       -2.7836550791        1.2972056364
 H         -2.8544706696       -4.7783551476        1.5189171787
 H         -3.5121638073       -5.4574388750       -0.0284311722
 H         -2.7379453152       -3.3821754667       -1.2519905175
 O         -2.5257518671       -0.2833792073        2.1815172309
