  62
        -98.94002586
 C         -2.2363400602       -1.0846776902       -0.4885201005
 C         -3.4788726401       -0.8411142803        0.1522037197
 C         -4.1812251101        0.3851080498       -0.2368262400
 C         -3.6398664702        1.1948380099       -1.1644117199
 C         -4.2353974102        2.4791696401       -1.6746810196
 C         -3.9384788000        3.6969006499       -0.7887126395
 C         -4.7006203698        3.7387692297        0.5365320706
 H         -4.5676048697        4.7403403496        0.9501350308
 H         -5.7655867899        3.6035164498        0.3455449407
 C         -4.2267347598        2.7104489795        1.5732712004
 H         -3.2386683398        2.3372485995        1.2919620502
 H         -4.1183508396        3.1968941493        2.5453133405
 C         -5.1693707198        1.5220865095        1.7639841703
 H         -4.7177643798        0.8408471994        2.4894005601
 H         -6.1199574997        1.8705909195        2.1735784705
 C         -5.4513597500        0.7283514098        0.4816922202
 H         -5.9397493300       -0.2089442803        0.7586094801
 H         -6.1170998701        1.2914648299       -0.1716813496
 H         -2.8637097000        3.7314679598       -0.5937780396
 H         -4.2007038200        4.5887222000       -1.3627158193
 H         -3.7972795003        2.6545637802       -2.6595179897
 H         -5.3136122202        2.3637402601       -1.7883867995
 O         -2.4592941303        0.9152989300       -1.7771037601
 C         -1.7148862303       -0.2106765801       -1.4433723404
 O         -0.6495726204       -0.3080171501       -2.0821082406
 O         -3.9807988301       -1.6186178604        1.0072089296
 C         -1.4647792502       -2.3196692304       -0.0496611908
 C         -0.4021511801       -1.8881248406        0.9329993792
 C         -0.7009025699       -1.8789006008        2.2929271792
 C          0.2308894102       -1.4465332610        3.2174862591
 C          1.4766001402       -1.0119164810        2.8027112091
 C          1.7854240300       -1.0152369108        1.4467181690
 C          0.8497088099       -1.4538887606        0.5197018091
 H          1.0961798797       -1.4173245504       -0.5289938210
 N          3.0599549100       -0.6071818908        1.0136789889
 S          3.1865458799        0.2937789994       -0.4116015709
 O          2.2437267199        1.3897544295       -0.3894447206
 O          3.1374810897       -0.6039806904       -1.5362771311
 C          4.8511403599        0.9127356593       -0.2298982110
 C          5.0594636600        2.2304521193        0.1292261092
 C          6.3594162001        2.6854961592        0.2881536591
 C          7.4231538100        1.8185338691        0.0902701588
 C          7.1987078299        0.4979147092       -0.2700332714
 C          5.9019577098        0.0378216993       -0.4332331013
 H          5.6785317297       -0.9757643306       -0.7221012814
 H          8.0281947298       -0.1728795808       -0.4253347716
 H          8.4334522400        2.1748451391        0.2148811787
 H          6.5362488602        3.7124848591        0.5643714892
 H          4.2009310701        2.8682459093        0.2665215694
 H          3.5904824501       -0.1672264909        1.7545518689
 H          2.2064735503       -0.6711245712        3.5215596590
 H         -0.0155281297       -1.4426857112        4.2685069992
 H         -1.6826105699       -2.1983137808        2.6125882693
 H         -2.1957545402       -2.9297074304        0.4995316292
 C         -0.9224501904       -3.1438476402       -1.1967111310
 C         -0.5333731005       -4.5684147003       -0.9415900713
 C         -1.7558645206       -4.2588932501       -1.7509276511
 H         -1.7316595507       -4.4375842299       -2.8154279711
 H         -2.7227191205       -4.4312469101       -1.3009442310
 H          0.3345227494       -4.9616767602       -1.4481653515
 H         -0.6720348304       -4.9511912704        0.0582899787
 H         -0.3271233005       -2.5764737301       -1.9005758910
