  62
        -98.94938326
 C         -0.5435506170       -1.8234596492       -0.1267834653
 C         -1.7192083616       -1.8648559711        0.6576120209
 C         -2.8331859925       -1.0359466447        0.1847913894
 C         -2.6880795546       -0.2970300098       -0.9305105917
 C         -3.7596319888        0.5371050221       -1.5815784728
 C         -3.9422165032        1.9385812825       -0.9844223578
 C         -4.5820269363        1.9805327981        0.4032861857
 H         -4.8375294027        3.0225167691        0.6067616802
 H         -5.5133461114        1.4130927925        0.3922442746
 C         -3.6808699165        1.4666004719        1.5351155994
 H         -2.6377832995        1.4474495612        1.2077620190
 H         -3.7246123549        2.1583097706        2.3800848341
 C         -4.0587223233        0.0830703869        2.0647634560
 H         -5.0389567800        0.1305844248        2.5453035896
 H         -3.3249112273       -0.2010578418        2.8238487453
 C         -4.0924455429       -1.0179248050        0.9971882742
 H         -4.1731637715       -1.9828125114        1.5043943754
 H         -4.9616875062       -0.8880708126        0.3521570625
 H         -2.9720429660        2.4379022191       -0.9462525162
 H         -4.5790143384        2.5030287414       -1.6698513225
 H         -3.4721537893        0.6443828990       -2.6297114233
 H         -4.7086254872        0.0009976942       -1.5375249947
 O         -1.5305665020       -0.2637951844       -1.6422516501
 C         -0.4259734349       -1.0082478696       -1.2524226674
 O          0.5729408256       -0.8687876216       -1.9816948023
 O         -1.8389383817       -2.5764406786        1.6928693470
 C          0.6385825500       -2.6852194160        0.2695234293
 C          1.8847897801       -1.8595614627        0.4705083418
 C          3.1542189157       -2.3302257866        0.1546221385
 C          4.2713277404       -1.5469815734        0.3847581436
 C          4.1488826735       -0.2785297615        0.9212426057
 C          2.8841352419        0.1999692461        1.2432998165
 C          1.7691505501       -0.5935546644        1.0286363063
 H          0.7947645097       -0.2105269120        1.2947531275
 N          2.7156576699        1.4822968962        1.7922308364
 S          1.4328443052        2.4271357837        1.3025532392
 O          1.8201475739        3.7715702560        1.6816499386
 O          0.2011861523        1.9530578202        1.8840333369
 C          1.3470735457        2.3290543129       -0.4757990757
 C          0.1003568442        2.3791460090       -1.0611803811
 C         -0.0013610007        2.3667021211       -2.4416518074
 C          1.1473717954        2.2993645692       -3.2120448474
 C          2.3947582378        2.2520116339       -2.6111369685
 C          2.5010450738        2.2738414345       -1.2304005336
 H          3.4631164787        2.2389881890       -0.7460289850
 H          3.2862994866        2.1918976668       -3.2144709151
 H          1.0682017203        2.2755554672       -4.2874182152
 H         -0.9735638032        2.3927155420       -2.9075246636
 H         -0.7653461111        2.4101239059       -0.4172935388
 H          3.5617803810        2.0261631452        1.8794865375
 H          5.0194683401        0.3356775872        1.0944532478
 H          5.2503667951       -1.9261586382        0.1348784298
 H          3.2681615869       -3.3129178481       -0.2726276481
 H          0.3651822565       -3.1294690331        1.2393701452
 C          0.8227540679       -3.8020855038       -0.7399626387
 C          1.3044081648       -5.1535634948       -0.3060826214
 C         -0.1252146531       -4.9622810868       -0.7112240021
 H         -0.4596736095       -5.3799524053       -1.6489257906
 H         -0.8816953946       -4.9615568250        0.0601641262
 H          1.9520011876       -5.7075338189       -0.9690131867
 H          1.5159535925       -5.2977184816        0.7427411932
 H          1.1326732356       -3.4330557918       -1.7113666971
