  62
        -98.93733953
 C         -2.1777623751       -1.2487186923       -0.1334806853
 C         -2.6351282312       -0.1310975068       -0.8696008874
 C         -4.0291782939        0.2799240024       -0.6262225158
 C         -4.7822162970       -0.4152491538        0.2433055043
 C         -6.2294623581       -0.2011213869        0.6099268674
 C         -6.6925259892        1.2429080931        0.8488964593
 C         -5.6282696243        2.1775059041        1.4423942323
 H         -6.0492922367        2.6883073965        2.3104400255
 H         -4.7711821642        1.5981066680        1.7897889739
 C         -5.1538811544        3.2460835888        0.4544029509
 H         -6.0231625418        3.6456856622       -0.0725897649
 H         -4.7056218717        4.0694072695        1.0158384785
 C         -4.1184420964        2.7819439537       -0.5695904658
 H         -3.1607612924        2.5996516774       -0.0737365710
 H         -3.9587446629        3.5974514925       -1.2792629466
 C         -4.4854933060        1.5114510822       -1.3538355748
 H         -5.5492558207        1.4787314463       -1.5767318901
 H         -3.9313408088        1.5281441904       -2.2963138337
 H         -7.0554640200        1.6687028034       -0.0855305886
 H         -7.5488042926        1.1917807560        1.5235315797
 H         -6.8485581560       -0.6503766654       -0.1719933029
 H         -6.3817732984       -0.7892157352        1.5180966662
 O         -4.3010299942       -1.4950162682        0.9226759720
 C         -2.9968242470       -1.9295215270        0.7653440712
 O         -2.6907910895       -2.9123625157        1.4703705110
 H          1.3126071376       -0.6778876975       -1.8098596646
 C          1.2047962244       -0.2052949928       -0.8464116927
 C          0.2103237661       -0.6217781071        0.0234799806
 C          0.1043185178        0.0077663801        1.2613202775
 C          0.9536550569        1.0410662106        1.6062583720
 C          1.9328702688        1.4683383896        0.7261860590
 C          2.0551432919        0.8397952408       -0.5049464709
 N          3.0558334827        1.2584254124       -1.3965402095
 S          4.5922693940        1.5190874239       -0.7910338387
 O          4.6583400265        2.8135262374       -0.1600739934
 O          5.4806200977        1.3181335942       -1.9140779194
 C          4.8256975145        0.2383142139        0.4297861229
 C          5.0180273621        0.5738508169        1.7541395409
 C          5.1603997285       -0.4394433689        2.6887912413
 C          5.1040644231       -1.7640623523        2.2849622213
 C          4.9133765428       -2.0853406620        0.9495523949
 C          4.7718237671       -1.0766232297        0.0110139561
 H          4.6293675881       -1.2936070598       -1.0353133425
 H          4.8716867176       -3.1167761234        0.6381974223
 H          5.2096701947       -2.5518269922        3.0141312571
 H          5.3107836437       -0.1927625889        3.7274788694
 H          5.0534060357        1.6162874341        2.0257447690
 H          3.0774116514        0.7468753613       -2.2660214364
 H          2.5928862747        2.2847727704        0.9702697681
 H          0.8516232466        1.5232197863        2.5667474905
 H         -0.6639962174       -0.3226474948        1.9476173998
 C         -0.7507091287       -1.7385856586       -0.3030397999
 H         -0.6138380511       -2.5340944696        0.4434386782
 C         -0.5615154735       -2.3299881649       -1.6841071844
 C          0.4918158631       -3.3700663312       -1.9182279559
 C         -0.9564082618       -3.7555621975       -1.9196595647
 H         -1.4227637650       -4.0127999321       -2.8589213082
 H         -1.3429445778       -4.3084463648       -1.0758389215
 H          1.0199925478       -3.3693497192       -2.8600212057
 H          1.0927761376       -3.6698542952       -1.0732801467
 H         -0.7685549975       -1.6186700624       -2.4756225792
 O         -1.9218942156        0.4907861975       -1.6992675817
