  62
        -98.93376075
 C          1.6965595623        1.2287935685       -0.6474595683
 C          1.5270991471        0.2022504815        0.3129099143
 C          2.7553995791       -0.2792161823        0.9782549338
 C          3.9346593896        0.2906634861        0.6806126911
 C          5.2931001708       -0.0914840901        1.1991688537
 C          5.9821497142       -1.0759772471        0.2390861338
 C          5.6505588818       -2.5483346643        0.4794916310
 H          6.0896658054       -3.1183967468       -0.3424221619
 H          6.1338935795       -2.8784538238        1.4014172503
 C          4.1582200396       -2.8797868030        0.5650965389
 H          3.6160496707       -2.3395229765       -0.2129200478
 H          4.0406505551       -3.9457623342        0.3608861346
 C          3.5484220959       -2.5696623046        1.9405519233
 H          4.3536899498       -2.3961311070        2.6544571452
 H          3.0017952834       -3.4444309689        2.2989498121
 C          2.5656067767       -1.3880115203        1.9770934696
 H          1.5487542117       -1.7527917748        1.7995368671
 H          2.5643390161       -0.9545641373        2.9831234213
 H          5.7057721762       -0.7973528082       -0.7810819636
 H          7.0634741522       -0.9540577512        0.3286969549
 H          5.8823226875        0.8271319414        1.2379730485
 H          5.2205190532       -0.5041248917        2.2011581451
 O          4.0478544431        1.3078080390       -0.2167221304
 C          2.9478042898        1.8021353174       -0.8916484831
 O          3.2066684340        2.7427332612       -1.6688083814
 H         -1.9099222935        0.6170439590       -0.9017949621
 C         -1.7517039022        1.5117447107       -0.3224925904
 C         -0.5695135455        2.2250426649       -0.4526223560
 C         -0.3824116580        3.3619700594        0.3289362893
 C         -1.3595384490        3.7863692299        1.2080221635
 C         -2.5399776832        3.0753107875        1.3302200683
 C         -2.7306464752        1.9288471763        0.5698801423
 N         -3.9285622496        1.1898949323        0.6717417578
 S         -3.8263396231       -0.3687570787        1.3069292699
 O         -5.1679293403       -0.6397981487        1.7867006810
 O         -2.7783374835       -0.4668712828        2.2951986067
 C         -3.5081609455       -1.4239851068       -0.0880552933
 C         -4.5517122264       -1.6644088701       -0.9611514791
 C         -4.3449078751       -2.5171759356       -2.0327299835
 C         -3.1072753189       -3.1196537482       -2.2043528842
 C         -2.0715989510       -2.8660217702       -1.3184114643
 C         -2.2669672225       -2.0051233733       -0.2486102387
 H         -1.4766954942       -1.7573970759        0.4423212010
 H         -1.1079178904       -3.3309056661       -1.4548522721
 H         -2.9470011442       -3.7907019552       -3.0338274288
 H         -5.1465900326       -2.7140012219       -2.7262224849
 H         -5.5015946677       -1.1909485391       -0.7763396623
 H         -4.6553091816        1.6852351739        1.1715796848
 H         -3.3082282112        3.3999963953        2.0168017764
 H         -1.2021320651        4.6733196363        1.8033872754
 H          0.5446948047        3.9117221592        0.2349212067
 C          0.5262687900        1.8281191006       -1.4102247912
 H          0.9292379415        2.7560510128       -1.8481498390
 C          0.0276536110        0.9884018173       -2.5763412312
 C          1.0081451736        0.3016466975       -3.4795511528
 C          0.0972977645       -0.5064253213       -2.6075733460
 H         -0.7175830962       -1.0410724092       -3.0730132687
 H          0.5155291072       -1.0093594261       -1.7511189112
 H          2.0533510067        0.3633541962       -3.2118455715
 H          0.8284396731        0.3165125933       -4.5438046473
 H         -0.8323404404        1.4446765009       -3.0570326791
 O          0.4175062974       -0.3127422409        0.6030040958
