  62
        -98.93925397
 C         -2.5538550037       -0.2911852192        0.0511827887
 C         -2.1942724870       -1.2925737216       -0.8789498095
 C         -1.5434231825       -2.4952209570       -0.3352795230
 C         -1.3433215091       -2.5912751127        0.9906581830
 C         -0.7570444897       -3.7363445500        1.7802581642
 C          0.4594082008       -4.4646859197        1.1982944801
 C          1.4577879277       -3.5662535733        0.4538789498
 H          1.2353772812       -2.5131926384        0.6385271176
 H          2.4619483865       -3.7558445116        0.8391071180
 C          1.4804429613       -3.8203151721       -1.0549062999
 H          2.4162894356       -3.4274240120       -1.4604325833
 H          1.4666223155       -4.8984361289       -1.2340068072
 C          0.3457933760       -3.1662809207       -1.8412180101
 H          0.4366646648       -3.4759300080       -2.8859250394
 H          0.4713446161       -2.0789055178       -1.8198823714
 C         -1.0748790946       -3.4969417317       -1.3512495683
 H         -1.7558903734       -3.4018243962       -2.2018254384
 H         -1.1330363363       -4.5150477206       -0.9731952889
 H          0.1265870291       -5.2580533698        0.5302338071
 H          0.9625359927       -4.9494939615        2.0369673159
 H         -1.5553047522       -4.4631647042        1.9611165615
 H         -0.4911920153       -3.3019811146        2.7471021403
 O         -1.7290417391       -1.6107060350        1.8554272669
 C         -2.2836366272       -0.4231483028        1.4119862221
 O         -2.5065905217        0.4086140881        2.3136232351
 O         -2.4138669159       -1.1878015218       -2.1182383559
 C         -3.0985689494        1.0291028600       -0.4621130395
 C         -2.0845922818        2.1178780075       -0.1978829510
 C         -2.4166076060        3.4135269123        0.1733138361
 C         -1.4217004230        4.3517383296        0.3987498223
 C         -0.0850975032        4.0180097904        0.2859961445
 C          0.2571814888        2.7196416808       -0.0811282043
 C         -0.7405534774        1.8018739493       -0.3528409555
 H         -0.4640812378        0.8084259935       -0.6736633479
 N          1.6042017885        2.3160295054       -0.1284562965
 S          2.0140292728        0.7083248922       -0.3654810776
 O          1.7760993445        0.2999552286       -1.7345868244
 O          1.3905856959       -0.0780557287        0.6677215492
 C          3.7696554964        0.8065049287       -0.0746396503
 C          4.2173568690        0.8626813148        1.2315144398
 C          5.5783271461        0.9667523468        1.4703236966
 C          6.4648851263        1.0134133310        0.4044090056
 C          6.0015915219        0.9529726437       -0.9010574446
 C          4.6410530722        0.8493913593       -1.1460110185
 H          4.2348814977        0.7895115606       -2.1429483291
 H          6.6930733538        0.9855464534       -1.7275159195
 H          7.5236964175        1.0942140322        0.5931059432
 H          5.9417555126        1.0103647208        2.4843718402
 H          3.4904041820        0.8135003041        2.0258334087
 H          2.2415590180        2.9736577217       -0.5507370517
 H          0.6872961838        4.7435534391        0.4862729900
 H         -1.6943961453        5.3573346427        0.6811731341
 H         -3.4523604437        3.6887385834        0.2892417224
 H         -3.1881260405        0.9041364943       -1.5527436423
 C         -4.4672900213        1.3278125544        0.1107516727
 C         -5.4686225928        2.1068192800       -0.6874885317
 C         -5.6617417430        0.6366539092       -0.4734853658
 H         -6.4438913289        0.3074495175        0.1936987746
 H         -5.4883613719       -0.0301336476       -1.3057571940
 H         -6.1241817854        2.7884454233       -0.1669029489
 H         -5.1746878025        2.4387888524       -1.6718682797
 H         -4.4444593470        1.4666310976        1.1855402080
