  62
        -98.94037854
 C         -1.7699155766       -0.9751348145       -0.2639710252
 C         -3.1157970243       -1.3047918076        0.0129739378
 C         -4.1255646365       -0.2804839853       -0.3074810915
 C         -3.7290693516        0.8973029744       -0.8255490797
 C         -4.5228655596        2.1044781130       -1.2805423834
 C         -5.9986104457        2.2519674083       -0.9196119501
 C         -6.2736919743        2.4832798195        0.5661164177
 H         -5.9167816931        3.4810449226        0.8336005106
 H         -7.3546978266        2.4647370291        0.7206427493
 C         -5.6180364111        1.4893553348        1.5214877521
 H         -5.8842745814        1.7804416732        2.5412604947
 H         -4.5317600155        1.5633900046        1.4392700948
 C         -6.0316942099        0.0314098977        1.3325136656
 H         -7.1191956863       -0.0520469079        1.3804502544
 H         -5.6159798699       -0.5403930274        2.1667084096
 C         -5.5461846756       -0.6302576106        0.0314950267
 H         -5.5677490530       -1.7143931637        0.1766124891
 H         -6.2078823912       -0.4003247212       -0.8000977653
 H         -6.5626884151        1.3987170409       -1.2845561211
 H         -6.3652160924        3.1276709931       -1.4621517623
 H         -4.4303629425        2.1239200724       -2.3721162452
 H         -3.9756867533        2.9774203769       -0.9106540807
 O         -2.4138977374        1.1681430724       -1.0767516420
 C         -1.4082897752        0.2547766022       -0.8080757607
 O         -0.2631531954        0.6536693018       -1.0895614425
 O         -3.4636819452       -2.4112606442        0.5068326765
 C         -0.6832048514       -1.9926493647        0.0280728225
 C          0.3587698046       -1.4000361557        0.9432652546
 C         -0.0525380479       -0.7840003126        2.1235167193
 C          0.8678179991       -0.2261541547        2.9884786424
 C          2.2200533273       -0.2640817816        2.6931373669
 C          2.6425785611       -0.8843115137        1.5246553507
 C          1.7146366857       -1.4579061830        0.6640322246
 H          2.0737518616       -1.9302573599       -0.2342650830
 N          4.0119096684       -0.9705112410        1.2141158997
 S          4.5922462713       -0.4574551683       -0.2691799370
 O          3.9598156735       -1.1969011895       -1.3298792903
 O          6.0284453833       -0.5961505243       -0.1625454997
 C          4.1743974241        1.2747341975       -0.3596250974
 C          5.1653053653        2.2033206876       -0.1019631516
 C          4.8475505570        3.5510970839       -0.1245756309
 C          3.5458118258        3.9471117737       -0.3941307731
 C          2.5631306191        3.0023087164       -0.6441497839
 C          2.8737559467        1.6508488093       -0.6289955082
 H          2.1124972921        0.9120219716       -0.8239921034
 H          1.5459452949        3.2941503132       -0.8526962168
 H          3.2951108813        4.9962123167       -0.4105969828
 H          5.6119311992        4.2866214649        0.0682812221
 H          6.1634181925        1.8489652075        0.0993307679
 H          4.6179377685       -0.6265579679        1.9459250677
 H          2.9410790592        0.1773841631        3.3643670143
 H          0.5316342726        0.2489179675        3.8977773704
 H         -1.1095086527       -0.7473849264        2.3505597922
 H         -1.1849966444       -2.8133272418        0.5624231258
 C         -0.1146450160       -2.5357503262       -1.2661638563
 C          0.4548078406       -3.9208080565       -1.3182792712
 C         -0.8528891034       -3.6222935642       -1.9863030439
 H         -0.8885624663       -3.5943310435       -3.0651034083
 H         -1.7584838404       -3.9927382457       -1.5283193704
 H          1.3228727466       -4.0951821364       -1.9364415624
 H          0.4382474238       -4.5021926009       -0.4087229518
 H          0.3586941803       -1.7701499915       -1.8722127033
