  62
        -98.94174793
 C         -1.7072819299       -0.4789880378       -0.3001538187
 C         -2.8241543819       -1.2946247202        0.0188429416
 C         -4.1426031628       -0.7563643719       -0.3316163648
 C         -4.2341532436        0.4522295947       -0.9145571341
 C         -5.5035987046        1.1300817926       -1.3539710191
 C         -6.2253692129        1.8893396343       -0.2321882917
 C         -6.9218160026        1.0087262490        0.8061782385
 H         -7.5681021110        0.2922287510        0.2981679699
 H         -7.5638295120        1.6618289737        1.4006580202
 C         -5.9657142404        0.2650552055        1.7492600218
 H         -6.3185480770        0.3653224419        2.7781737981
 H         -4.9770116777        0.7277427225        1.7038261739
 C         -5.8266636584       -1.2299562823        1.4618010894
 H         -6.7843361853       -1.7265578134        1.6326066638
 H         -5.1004767725       -1.6480326791        2.1634093235
 C         -5.3532790708       -1.5584423235        0.0398346347
 H         -6.1579574380       -1.3849438593       -0.6743916890
 H         -5.0761028308       -2.6149253759        0.0065048937
 H         -6.9791137120        2.5253187451       -0.7022459225
 H         -5.5048914825        2.5418347837        0.2666335142
 H         -6.1797547872        0.3946872177       -1.7910535045
 H         -5.2211960437        1.8467695615       -2.1282917281
 O         -3.1427002869        1.2121230004       -1.1913380121
 C         -1.8568224736        0.7852359831       -0.8727758068
 O         -0.9739647285        1.6172017844       -1.1514104584
 O         -2.7221512565       -2.4206168997        0.5733947689
 C         -0.3322324230       -1.0103842243        0.0636155416
 C          0.4778781628        0.0481751060        0.7659074442
 C          0.0819093216        0.4658854732        2.0343005627
 C          0.7877945766        1.4422192481        2.7091944383
 C          1.9179002495        2.0071559195        2.1437956438
 C          2.3197009279        1.5991880931        0.8781119883
 C          1.6008389466        0.6259923626        0.1966373926
 H          1.9044139887        0.3642082403       -0.8023529162
 N          3.4588310309        2.1510928992        0.2786512624
 S          4.4224524731        1.2269263743       -0.7184644052
 O          5.7239671396        1.8573525497       -0.6414638319
 O          3.8559235202        1.1274079135       -2.0396422320
 C          4.4861882587       -0.3882388696        0.0400097488
 C          4.8628947967       -0.4832878447        1.3651686151
 C          4.9074626973       -1.7327771675        1.9616507715
 C          4.5803873755       -2.8619082002        1.2264390806
 C          4.2138572422       -2.7515476330       -0.1056708517
 C          4.1644061781       -1.5033118945       -0.7059986965
 H          3.8771926381       -1.3708785356       -1.7370683234
 H          3.9622736245       -3.6307416703       -0.6775449606
 H          4.6123550064       -3.8338379548        1.6929104723
 H          5.1948765335       -1.8226026780        2.9967605252
 H          5.1190412719        0.4110263878        1.9091331997
 H          3.9907010748        2.7865225186        0.8535764472
 H          2.4736004986        2.7687732239        2.6692391628
 H          0.4628812625        1.7622926416        3.6877154305
 H         -0.7985575356        0.0215353954        2.4782691033
 H         -0.5380588138       -1.8154264090        0.7889457658
 C          0.4184263123       -1.6544449102       -1.0918207615
 C         -0.3097339125       -2.3627505284       -2.1933406573
 C          0.4141294218       -1.0819427223       -2.4760991125
 H          1.3292103066       -1.1160233740       -3.0502453589
 H         -0.1638076410       -0.1870918651       -2.6477305385
 H          0.1040025159       -3.2842418695       -2.5740984327
 H         -1.3896683269       -2.3431211883       -2.1735425700
 H          1.3474780481       -2.1078609961       -0.7587826689
