  62
        -98.93326159
 C         -2.5225689001       -1.4586375552        0.2198052047
 C         -2.3187843304       -0.2997977256       -0.5713404995
 C         -3.3928261317        0.7072630209       -0.5262039203
 C         -4.4974872357        0.4838407865        0.2056393900
 C         -5.7051010391        1.3765012361        0.3151659341
 C         -5.4808077457        2.7428482023        0.9916545198
 C         -5.1784480981        3.8894392096        0.0188660202
 H         -5.5919577967        3.6393113863       -0.9589061573
 H         -5.7005527763        4.7856190969        0.3600456288
 C         -3.7010555840        4.2656043856       -0.1325217960
 H         -3.3922608288        4.8574973487        0.7321353006
 H         -3.6055589151        4.9008841120       -1.0157996374
 C         -2.7238645140        3.0962712561       -0.2571138899
 H         -1.7491378877        3.4907482603       -0.5531806306
 H         -2.5786402464        2.6320548034        0.7217241403
 C         -3.1563888898        2.0003178538       -1.2504878500
 H         -4.0478289044        2.3048590803       -1.7971185513
 H         -2.3558992696        1.8163712121       -1.9702853592
 H         -4.6886252795        2.6552462954        1.7347954368
 H         -6.4006793406        2.9848810949        1.5262458337
 H         -6.1192991835        1.5309851580       -0.6836807672
 H         -6.4345322627        0.8077458085        0.8953998413
 O         -4.6648475072       -0.6530977559        0.9346063330
 C         -3.6790539689       -1.6224996822        0.9898974970
 O         -3.9488953023       -2.5768200372        1.7458867196
 H          0.5901869050       -1.9330302885       -1.3188159315
 C          0.7937499921       -1.6586282993       -0.2955540865
 C         -0.1472679222       -1.9275723743        0.6848701172
 C          0.1189096468       -1.5362301619        1.9931316476
 C          1.3015752325       -0.8942709340        2.3099706444
 C          2.2331212716       -0.6137082156        1.3256973970
 C          1.9662553997       -0.9820367374        0.0142519810
 N          2.8957583051       -0.6780964062       -0.9951960299
 S          3.5430502230        0.8710970321       -1.0406514048
 O          2.6613995037        1.8530829048       -0.4544372315
 O          3.9184247200        1.0821196728       -2.4223750278
 C          5.0272210612        0.7282127796       -0.0636308833
 C          5.2440351989        1.5938923290        0.9903753212
 C          6.4100579113        1.4721434784        1.7302941958
 C          7.3351817901        0.4926642099        1.4037309349
 C          7.1045344294       -0.3670471681        0.3400360038
 C          5.9413278341       -0.2498039359       -0.4036871666
 H          5.7264470194       -0.8943168067       -1.2394778638
 H          7.8265501310       -1.1271811005        0.0886765763
 H          8.2412841572        0.3993436019        1.9813031027
 H          6.5908560659        2.1406291388        2.5567629893
 H          4.4944529487        2.3377664359        1.2100408302
 H          2.5841960573       -0.9522914429       -1.9162618125
 H          3.1481995915       -0.0950374854        1.5608325483
 H          1.4977147417       -0.6017391355        3.3304237197
 H         -0.6208877028       -1.7313385046        2.7577241046
 C         -1.4776157822       -2.5561951068        0.3559645546
 H         -1.8010585466       -3.1446317235        1.2290049059
 C         -1.4055348674       -3.5256146710       -0.8143860977
 C         -2.6651898369       -4.0370904186       -1.4460755874
 C         -1.7436882143       -3.1486292754       -2.2238032508
 H         -1.1615128886       -3.5895958149       -3.0203294625
 H         -2.0482145649       -2.1330760471       -2.4202375810
 H         -3.5979913626       -3.6213785350       -1.0930108178
 H         -2.7239734424       -5.0815877677       -1.7121156787
 H         -0.6029229077       -4.2457846331       -0.6857116417
 O         -1.3117546360       -0.0984747316       -1.2986971237
