  62
        -98.93978388
 C         -2.2069610530       -0.7886369148        0.1257447068
 C         -2.4459610601        0.3387465092        0.9470189979
 C         -3.1166569661        1.4750580978        0.3020521086
 C         -3.4189296960        1.4017143511       -1.0073374409
 C         -4.1497975614        2.4616920665       -1.7783542729
 C         -5.6653893239        2.2181608679       -1.7550309670
 C         -6.2282843284        1.9583518488       -0.3576216237
 H         -5.8290581159        1.0132260453        0.0175409500
 H         -7.3082211537        1.8321062142       -0.4605318909
 C         -5.9382055630        3.0699331142        0.6605964920
 H         -6.8523464860        3.2795586034        1.2199620539
 H         -5.6602760828        3.9866621915        0.1393557513
 C         -4.8582283690        2.7233688802        1.6871597140
 H         -5.0859985798        1.7580902905        2.1464125113
 H         -4.8870706219        3.4768898932        2.4787840752
 C         -3.4209493508        2.6758869473        1.1533580841
 H         -2.7491664340        2.6107360942        2.0143931107
 H         -3.1986496689        3.5983592377        0.6131542216
 H         -5.8857951979        1.3494621974       -2.3796935890
 H         -6.1610001101        3.0862729553       -2.1933445635
 H         -3.8024061403        2.4353904900       -2.8124857627
 H         -3.9216393906        3.4369686121       -1.3528555991
 O         -3.1295058936        0.3209318617       -1.7756196066
 C         -2.5235232107       -0.8031713423       -1.2331386473
 O         -2.3243481102       -1.7217480053       -2.0490863224
 O         -2.1079255142        0.3944755153        2.1612890407
 C         -1.5368656022       -2.0080517106        0.7335547978
 C         -0.1902623820       -2.2267423126        0.0872956176
 C          0.2044238472       -3.4282397518       -0.4837622502
 C          1.4576247700       -3.5494452269       -1.0604540240
 C          2.3403958482       -2.4861651545       -1.0781411013
 C          1.9607641268       -1.2819370476       -0.4976413459
 C          0.7072577850       -1.1649792354        0.0830203334
 H          0.4095347543       -0.2278737955        0.5380523524
 N          2.8422248036       -0.1805901066       -0.5190926253
 S          4.4285240327       -0.4623829065       -0.0046731366
 O          5.1332161791       -1.1573990836       -1.0517152377
 O          4.4254450505       -1.1078927131        1.2900521896
 C          5.0416558615        1.2045739349        0.1306864504
 C          5.4303095133        1.8605706632       -1.0219089469
 C          5.8861390882        3.1657171429       -0.9275846733
 C          5.9454386839        3.7891822455        0.3101550345
 C          5.5536575289        3.1170067875        1.4580494753
 C          5.0945593978        1.8119866986        1.3705960292
 H          4.7867323742        1.2489112256        2.2372857057
 H          5.6037109838        3.6030709701        2.4191324459
 H          6.3022687259        4.8045262336        0.3814348083
 H          6.1938007528        3.6912919626       -1.8171868004
 H          5.3756740280        1.3330567875       -1.9597711704
 H          2.4568950264        0.6072446922       -0.0145663923
 H          3.3186195815       -2.5743707885       -1.5217575926
 H          1.7507585369       -4.4879879939       -1.5065247344
 H         -0.4685598935       -4.2695854750       -0.4844151341
 H         -1.3643156470       -1.7494380083        1.7891793578
 C         -2.4514952909       -3.2121940516        0.6718883499
 C         -2.2967871737       -4.3237361928        1.6651140268
 C         -3.4743489778       -3.4011625317        1.7503693723
 H         -4.4481694408       -3.7788033187        1.4769958536
 H         -3.4970853427       -2.6719295803        2.5471832153
 H         -2.4637544315       -5.3378091177        1.3348881924
 H         -1.5194044051       -4.2247087556        2.4076931729
 H         -2.7413141403       -3.4656045271       -0.3414425583
