  62
        -98.94318532
 C         -1.8216359700       -0.1026818697        0.3287832099
 C         -2.7383964098       -0.6593467101       -0.5968727701
 C         -3.9989049000        0.0771377195       -0.7670300103
 C         -4.2106624504        1.2198067496       -0.0911598906
 C         -5.4333126606        2.0921192692       -0.1814500308
 C         -6.5931160605        1.6353827190        0.7142909792
 C         -7.3195679401        0.3738462387        0.2457700494
 H         -8.2349172402        0.2943743486        0.8356660393
 H         -7.6141424701        0.4923365684       -0.7974216007
 C         -6.5115840598       -0.9208283210        0.4113542597
 H         -5.6865251899       -0.7486149806        1.1064138197
 H         -7.1465558396       -1.6917544211        0.8537150198
 C         -5.9500816295       -1.4888171311       -0.8920612102
 H         -6.7724612394       -1.7883939815       -1.5454245002
 H         -5.3665701693       -2.3813297809       -0.6531324399
 C         -5.0419082197       -0.5214848710       -1.6622874203
 H         -4.5257063395       -1.0839796510       -2.4438488501
 H         -5.6371897999        0.2622289687       -2.1300227205
 H         -6.2125523406        1.4825835993        1.7269617292
 H         -7.3167961208        2.4529663588        0.7517929889
 H         -5.1257963809        3.0909832793        0.1358058090
 H         -5.7706146305        2.1453546189       -1.2169996509
 O         -3.2940467606        1.7372317100        0.7702546394
 C         -2.0980281904        1.0842573104        1.0138485196
 O         -1.3722487906        1.6522424908        1.8561205696
 H          1.4711946696        1.1150857314        0.6148442199
 C          1.4419968399        0.5531056512       -0.3073295500
 C          0.4984829202       -0.4510605691       -0.4790901398
 C          0.4640066005       -1.1356174494       -1.6898590697
 C          1.3525732105       -0.8158413393       -2.6997188597
 C          2.3028154101        0.1736816310       -2.5187108398
 C          2.3438871998        0.8661771612       -1.3149497500
 N          3.2985111795        1.8783619316       -1.0998970101
 S          4.2455752594        1.7931261421        0.2779289300
 O          3.4650842493        2.1129441321        1.4449271199
 O          5.3716448592        2.6581935024        0.0024857699
 C          4.7771527599        0.0916215923        0.3269247104
 C          5.8418842201       -0.2854201776       -0.4683645394
 C          6.2128562405       -1.6195223075       -0.5043236691
 C          5.5083748707       -2.5512039375        0.2430875910
 C          4.4421560305       -2.1570946177        1.0364592608
 C          4.0700156501       -0.8227096078        1.0808792505
 H          3.2503925700       -0.4740814179        1.6882685604
 H          3.8953065807       -2.8827576477        1.6171900609
 H          5.7923263710       -3.5911281774        0.2101324012
 H          7.0446662407       -1.9289750574       -1.1162999090
 H          6.3666584499        0.4724202225       -1.0273357996
 H          3.8779925295        2.0684367516       -1.9054724101
 H          3.0002671201        0.4182532210       -3.3056195298
 H          1.3096206607       -1.3487730396       -3.6373251796
 H         -0.2864655193       -1.8936198297       -1.8455763496
 C         -0.4758898998       -0.7434161992        0.6372075201
 H         -0.1094702801       -0.2324818289        1.5382254501
 C         -0.5870161294       -2.2244183292        0.9385296704
 C          0.4929622407       -2.8844914487        1.7391424607
 C         -0.8594925194       -2.6610325090        2.3451459305
 H         -1.5038867692       -3.5125974091        2.5044018806
 H         -0.9622315797       -1.8911322988        3.0968617503
 H          0.7815441610       -3.8922485387        1.4838752109
 H          1.3055957905       -2.2629297984        2.0838946006
 H         -1.0536234292       -2.7956625095        0.1477903305
 O         -2.5404195394       -1.7132534302       -1.2543378098
