  62
        -98.93821134
 C          2.6727409083        1.1938826765        0.2278823765
 C          3.0818089438        0.2530456085        1.2081777968
 C          4.2891229457       -0.5212531225        0.9056078151
 C          4.9502356849       -0.2972736982       -0.2443051416
 C          6.2154318480       -0.9805818920       -0.6873638159
 C          5.9873190323       -2.3362919971       -1.3696808560
 C          5.5666215423       -3.4718411725       -0.4358781211
 H          5.6549246020       -4.4011990056       -1.0020939090
 H          6.2655837833       -3.5319493409        0.3989838360
 C          4.1321447628       -3.3541151185        0.0980804670
 H          3.5709010731       -2.6456925724       -0.5157219154
 H          3.6303728320       -4.3203072817        0.0097959431
 C          4.0328701352       -2.9253363553        1.5621472021
 H          2.9747676688       -2.8374484873        1.8218880137
 H          4.4741154178       -3.6942371403        2.2003256313
 C          4.7096741557       -1.5843803074        1.8747857448
 H          4.3974105921       -1.2664534065        2.8725987812
 H          5.7935271145       -1.6987601081        1.8672737491
 H          5.2361202115       -2.2110823760       -2.1528617786
 H          6.9258166438       -2.6199104515       -1.8516048279
 H          6.6953246825       -0.3107002626       -1.4041282483
 H          6.8804667007       -1.1091385392        0.1671894045
 O          4.5372930033        0.6227691527       -1.1531535301
 C          3.3807465200        1.3724940939       -0.9617237959
 O          3.1250165772        2.1390099027       -1.9072753646
 O          2.4674319103        0.0797680084        2.2954725381
 C          1.4226677936        1.9952549136        0.5434776075
 C          0.1914602300        1.3109749984        0.0064780319
 C          0.0976968494        0.9299956615       -1.3285880441
 C         -1.0459219121        0.3118395603       -1.8006304805
 C         -2.1121824784        0.0542925327       -0.9561882953
 C         -2.0281278127        0.4267094202        0.3782957925
 C         -0.8802439623        1.0533214461        0.8483959444
 H         -0.8137314241        1.3315172511        1.8918001524
 N         -3.0967169353        0.1504513779        1.2447653043
 S         -4.6571090168        0.5337570481        0.7624144325
 O         -4.6656343633        1.6539711361       -0.1489708975
 O         -5.3994200290        0.6985020739        1.9927212349
 C         -5.2241640268       -0.9364957394       -0.0656156810
 C         -5.7386078756       -0.8509794320       -1.3444319231
 C         -6.1872949666       -2.0066433870       -1.9649081861
 C         -6.1151108551       -3.2202378400       -1.2984515614
 C         -5.5975642303       -3.2886762560       -0.0133460625
 C         -5.1482434605       -2.1371582200        0.6128223105
 H         -4.7419157613       -2.1484785183        1.6104811790
 H         -5.5425510673       -4.2344037003        0.5014190231
 H         -6.4640588922       -4.1182500213       -1.7834031958
 H         -6.5897721494       -1.9555695282       -2.9638880404
 H         -5.7705151736        0.1134111256       -1.8262350072
 H         -2.9318374347        0.4203986372        2.2034700192
 H         -3.0035247997       -0.4285422180       -1.3219986545
 H         -1.1076964003        0.0248835677       -2.8395430822
 H          0.9278874260        1.1299325229       -1.9894124934
 H          1.3540818038        1.9742786423        1.6431873892
 C          1.5201365284        3.4571571193        0.1303941569
 C          0.7274255083        4.0675371733       -0.9819455909
 C          0.3938401934        4.3992512422        0.4396994027
 H          0.6280574499        5.3839769740        0.8147374543
 H         -0.5120202278        3.9750905576        0.8478342488
 H          1.2163484178        4.8117770898       -1.5915997889
 H          0.0431683310        3.4400829016       -1.5306577298
 H          2.5249129691        3.8449713696        0.2654742039
