  62
        -98.94601273
 C          1.9996763882        0.2968001956        0.5135471253
 C          1.6715655083       -0.8662356539        1.2543526974
 C          1.7785343143       -2.1439833762        0.5420620899
 C          2.1157262652       -2.1521196722       -0.7599229511
 C          2.2729543852       -3.3709893784       -1.6281468277
 C          0.9500889232       -3.8863303660       -2.2112921662
 C          0.0438574353       -4.6120465051       -1.2162165392
 H         -0.7277754031       -5.1202818547       -1.7979674682
 H          0.6182263563       -5.3782414409       -0.6935411099
 C         -0.6379195394       -3.6880816942       -0.1974865054
 H         -0.6044825651       -2.6594439884       -0.5672502903
 H         -1.6944787791       -3.9561216077       -0.1139647417
 C         -0.0426319100       -3.7500490394        1.2095928161
 H         -0.5873825193       -3.0474069313        1.8440572856
 H         -0.1866871318       -4.7520966986        1.6203079830
 C          1.4498412807       -3.4029721451        1.2884372006
 H          2.0468352973       -4.2308513917        0.9056270117
 H          1.7075494129       -3.2417916476        2.3384124548
 H          0.4073825432       -3.0418256683       -2.6446229388
 H          1.1957612815       -4.5777160839       -3.0210751444
 H          2.7596518025       -4.1672420113       -1.0635640700
 H          2.9248656077       -3.0807905926       -2.4550710503
 O          2.3794806076       -1.0142224555       -1.4507678616
 C          2.2980466342        0.2347861667       -0.8496900724
 O          2.5288245940        1.1783822792       -1.6292365610
 O          1.3025543759       -0.8387025225        2.4597679598
 C          1.8523150994        1.6434633967        1.2056759550
 C          0.9857894796        2.5246914180        0.3419796446
 C          1.3646677993        3.7584269285       -0.1662315327
 C          0.5254851230        4.4363786070       -1.0348828673
 C         -0.6813555008        3.8918630650       -1.4328172847
 C         -1.0737310663        2.6599660562       -0.9183202169
 C         -0.2599182500        2.0165661395       -0.0045957369
 H         -0.5615577386        1.0621321687        0.3958581972
 N         -2.2842805195        2.0646680649       -1.2971463340
 S         -2.4961875218        0.4036925203       -1.2749554627
 O         -1.2708460697       -0.3236050631       -1.5077850723
 O         -3.5623716008        0.1753554881       -2.2284108515
 C         -3.1284933507        0.1041837118        0.3630774332
 C         -2.3823621724       -0.5871481493        1.2948384846
 C         -2.9022934884       -0.7790994617        2.5654504863
 C         -4.1564519245       -0.2807196114        2.8806793646
 C         -4.8986022133        0.4068924214        1.9316674162
 C         -4.3818173961        0.6035006609        0.6618685048
 H         -4.9273951234        1.1240504444       -0.1073172821
 H         -5.8749031404        0.7911987373        2.1792453370
 H         -4.5559345058       -0.4312151148        3.8711488684
 H         -2.3165218461       -1.3095202485        3.2997627313
 H         -1.4070852547       -0.9618379908        1.0235925217
 H         -2.7567378794        2.5021940441       -2.0736441178
 H         -1.3099072655        4.4048829374       -2.1447514639
 H          0.8313445778        5.3921843061       -1.4331533413
 H          2.3272459526        4.1727887135        0.0849212666
 H          1.2941403532        1.4131546445        2.1291301218
 C          3.1563475881        2.2921505821        1.6394497655
 C          4.3656129087        1.4601592659        1.9427950593
 C          4.3589315893        2.3649774413        0.7490415272
 H          4.9653159698        3.2584883649        0.7825917624
 H          4.2813201165        1.9265361224       -0.2330764613
 H          4.9756860535        1.7292551173        2.7919516196
 H          4.2928679425        0.3951596941        1.7750131147
 H          2.9849582472        3.1429420962        2.2919486410
