  62
        -98.93385042
 C         -1.9421053626       -1.2882834820        0.1107631528
 C         -2.4644341810       -0.4385425570        1.1198711008
 C         -3.2416181845        0.7245996951        0.6711803110
 C         -3.3875179336        0.9395613694       -0.6484559970
 C         -4.2065066009        2.0343589943       -1.2711445713
 C         -5.7059915903        1.6818408715       -1.1957304568
 C         -6.5284570472        2.6144022944       -0.3063860912
 H         -7.5058284671        2.1495636742       -0.1610853168
 H         -6.6866253350        3.5579904394       -0.8327194616
 C         -5.9210562660        2.9372506446        1.0620596626
 H         -6.7160270652        3.3789643761        1.6665281480
 H         -5.1523028208        3.7034307677        0.9508775455
 C         -5.3223738147        1.7496890360        1.8268005049
 H         -5.7738208010        0.8133713794        1.4984618860
 H         -5.5678861123        1.8680986751        2.8840024055
 C         -3.7892090156        1.6353121573        1.7352557162
 H         -3.4124709125        1.2215459945        2.6753665897
 H         -3.3534642640        2.6317635839        1.6184847476
 H         -5.7977553476        0.6558910358       -0.8332132198
 H         -6.1341116804        1.6999425147       -2.1990792057
 H         -4.0061869152        2.9748453587       -0.7623073516
 H         -3.8877776411        2.1267930302       -2.3097990447
 O         -2.8543420975        0.1186543970       -1.5882331191
 C         -2.1094029266       -1.0027926717       -1.2436549138
 O         -1.6759048526       -1.6309213124       -2.2291903135
 H          0.4266031667       -1.3917209316       -1.3186717580
 C          0.9667124996       -1.5398434816       -0.3943733640
 C          0.3180330434       -2.1145151996        0.6908414548
 C          1.0290970867       -2.2875458936        1.8718921191
 C          2.3535960830       -1.8944414717        1.9624063206
 C          2.9915930644       -1.3126852781        0.8809610936
 C          2.2871424578       -1.1335927784       -0.3019816511
 N          2.9227025358       -0.4914543426       -1.3976795471
 S          2.9200465548        1.1888035106       -1.2287805817
 O          1.6944147931        1.6541441885       -0.6148827535
 O          3.2171940793        1.7159452927       -2.5427984126
 C          4.2971602482        1.4792429959       -0.1410621968
 C          4.0669425060        1.8628518569        1.1653295024
 C          5.1520000061        2.0582948980        2.0056888207
 C          6.4392607818        1.8666005304        1.5269903712
 C          6.6530267481        1.4827826292        0.2111858761
 C          5.5729644929        1.2851881493       -0.6341994431
 H          5.6898726767        0.9916711354       -1.6640503263
 H          7.6555374517        1.3357205576       -0.1569145350
 H          7.2810449718        2.0181146617        2.1840535023
 H          4.9873925777        2.3558575692        3.0287784573
 H          3.0479067663        1.9943912515        1.4928977039
 H          2.4707342004       -0.7107539292       -2.2764918964
 H          4.0212955772       -1.0006602162        0.9431644168
 H          2.8924573754       -2.0356006023        2.8865027737
 H          0.5293957403       -2.7153760360        2.7285772898
 C         -1.1384771273       -2.4872604877        0.5871450130
 H         -1.5030195496       -2.6790278678        1.6086499015
 C         -1.3851129520       -3.7478015361       -0.2293246261
 C         -0.3516539481       -4.3885572917       -1.1021290778
 C         -0.7469615410       -5.0405169381        0.1865644958
 H         -1.3365050416       -5.9438769593        0.1533880561
 H         -0.0383261054       -5.0017456082        1.0000757256
 H          0.6232406204       -3.9311334405       -1.1641491333
 H         -0.6858372906       -4.8219021777       -2.0324935289
 H         -2.4087172461       -3.8027187365       -0.5857137575
 O         -2.2905455684       -0.6542665518        2.3494218452
