  62
        -98.94468445
 C         -2.5700003423        0.1761285790        0.3535581538
 C         -2.1498556472        0.7140997116       -0.8873756495
 C         -1.6784477747        2.1058438154       -0.8544130672
 C         -1.6573819386        2.7678764175        0.3162362555
 C         -1.1852902634        4.1814418052        0.4984291259
 C          0.3034963081        4.2411036897        0.8632433127
 C          1.2041062942        3.4204000463       -0.0603477809
 H          2.2356434346        3.5921662717        0.2575707524
 H          1.0045199269        2.3560413472        0.0884713690
 C          1.0661781315        3.7553478541       -1.5520640805
 H          2.0657952940        3.8078487549       -1.9883427097
 H          0.6050584023        4.7370850923       -1.6722396452
 C          0.2838571949        2.7175259136       -2.3598655824
 H          0.6602065538        1.7191566921       -2.1235558381
 H          0.4687831108        2.9008266616       -3.4219709098
 C         -1.2363633278        2.7183245003       -2.1530239372
 H         -1.6242386779        3.7349468146       -2.2531930824
 H         -1.6794291079        2.1002735936       -2.9394566672
 H          0.6188564232        5.2865417215        0.8465572662
 H          0.4277400155        3.8625602379        1.8808201189
 H         -1.3667424614        4.7371408534       -0.4196553875
 H         -1.7648667106        4.6320050029        1.3065475404
 O         -2.0537329055        2.2115903630        1.4914899876
 C         -2.4938494896        0.9000128437        1.5414281640
 O         -2.7969273869        0.5007674445        2.6869536327
 H         -0.4715838027       -1.0361199537        1.1066691312
 C         -0.6320254769       -1.8955689623        0.4675090155
 C         -1.9139081153       -2.1828908166        0.0131145324
 C         -2.0890331286       -3.3029333246       -0.7882819480
 C         -1.0064628639       -4.0918049240       -1.1428249316
 C          0.2722557121       -3.7750618749       -0.7218610911
 C          0.4538492816       -2.6641434898        0.0914147531
 N          1.7704442924       -2.2794188881        0.4850525934
 S          2.0568773850       -0.6244732777        0.4998920700
 O          1.7359369188       -0.0372101165        1.7879477515
 O          1.4237620881       -0.0555682113       -0.6605890393
 C          3.8260876506       -0.6179598764        0.2766286450
 C          4.3214607558       -1.0043460949       -0.9540989490
 C          5.6931475720       -1.0376615227       -1.1448607068
 C          6.5434234305       -0.6861381140       -0.1065279594
 C          6.0320162035       -0.2982068152        1.1221157542
 C          4.6598774862       -0.2644284308        1.3188313005
 H          4.2164118839        0.0349097667        2.2550628546
 H          6.6944688365       -0.0227182035        1.9269425879
 H          7.6111171755       -0.7128904119       -0.2569722973
 H          6.0941628389       -1.3368550867       -2.0998272624
 H          3.6204870586       -1.2610778705       -1.7313551683
 H          2.0827200584       -2.7099568362        1.3441247401
 H          1.1235626330       -4.3678873172       -1.0141908566
 H         -1.1618004550       -4.9559816868       -1.7705491586
 H         -3.0751587489       -3.5539650597       -1.1442279761
 C         -3.0369133814       -1.2664503808        0.4361499815
 H         -3.2453375335       -1.4558213272        1.5004897594
 C         -4.3125379586       -1.4661712941       -0.3551166883
 C         -5.3134899039       -2.4961824478        0.0724397616
 C         -5.6129072099       -1.0394324450        0.2546642362
 H         -6.3534967533       -0.5783678544       -0.3811480104
 H         -5.5785070493       -0.6283074324        1.2535046549
 H         -5.0872914653       -3.0787605442        0.9527782297
 H         -5.8549315445       -3.0360506541       -0.6895859667
 H         -4.1741552358       -1.2894565234       -1.4152873493
 O         -2.1872745517        0.0719967604       -1.9691743488
