  62
        -98.94292499
 C         -2.1191079975       -1.5097877383        0.1172878450
 C         -1.7245132050       -0.3584703966       -0.6102251515
 C         -2.7649962877        0.6661036980       -0.7877039860
 C         -4.0047330205        0.4629013909       -0.3095994883
 C         -5.1749300190        1.3983808448       -0.4490868088
 C         -5.2224964066        2.5021729067        0.6163354173
 C         -4.1702168579        3.6009683797        0.4618137336
 H         -4.2069344524        3.9969049056       -0.5535539893
 H         -4.4526068255        4.4108490982        1.1374073198
 C         -2.7387992720        3.1563389450        0.7939040474
 H         -2.2634648357        3.9058743849        1.4302928156
 H         -2.7702894861        2.2266396666        1.3667804002
 C         -1.8348704976        2.9571630252       -0.4228157394
 H         -1.6815890424        3.9154064082       -0.9239193600
 H         -0.8656986223        2.5952268234       -0.0706737500
 C         -2.3694392156        1.9508673441       -1.4499031204
 H         -1.5700295417        1.7247634380       -2.1594975843
 H         -3.2120130923        2.3761799840       -1.9947351694
 H         -6.2112025018        2.9639738970        0.5627424190
 H         -5.1253182788        2.0404115037        1.6017682358
 H         -5.1681169857        1.8490817010       -1.4419754293
 H         -6.0749237671        0.7871949169       -0.3512609156
 O         -4.3496776685       -0.6670060622        0.3642067288
 C         -3.4120879775       -1.6516739346        0.6294692519
 O         -3.8473778788       -2.5955418526        1.3195549190
 O         -0.5803585347       -0.1792023390       -1.0981903958
 C         -1.1432647449       -2.6284622045        0.4446519447
 C          0.1592515833       -2.0350831489        0.9196174928
 C          0.2004869931       -1.4049632438        2.1600017908
 C          1.3646073288       -0.8150540782        2.6148255097
 C          2.5106779823       -0.8335491728        1.8392349228
 C          2.4742121602       -1.4464614619        0.5940648036
 C          1.3074265636       -2.0515610091        0.1454449279
 H          1.2884822076       -2.5063221346       -0.8323746903
 N          3.6234260252       -1.4589996909       -0.2118696831
 S          4.6023062766       -0.1066451243       -0.2612033138
 O          5.2992196495       -0.1995943335       -1.5255144024
 O          5.4411264220       -0.0782872322        0.9126126909
 C          3.5216454898        1.3128730306       -0.2602950814
 C          2.5939152785        1.4362760670       -1.2749578568
 C          1.7694331564        2.5485134668       -1.2954517478
 C          1.8829886180        3.5118975167       -0.3049516990
 C          2.8182390029        3.3724563308        0.7085083518
 C          3.6480253624        2.2633027393        0.7324347403
 H          4.3917912677        2.1171826166        1.4991258915
 H          2.9031647288        4.1229012696        1.4780480905
 H          1.2374056299        4.3759479885       -0.3241257131
 H          1.0361256287        2.6520242816       -2.0786610338
 H          2.5193624505        0.6722664000       -2.0313577773
 H          3.4715475212       -1.8349555256       -1.1360127022
 H          3.4287997900       -0.3849950662        2.1819302302
 H          1.3818886847       -0.3333169428        3.5807458622
 H         -0.6986235928       -1.3770981160        2.7609698393
 H         -1.5998412215       -3.1665334108        1.2911576241
 C         -0.9639378747       -3.6491588560       -0.6695187700
 C         -2.1236279947       -4.0499226392       -1.5301619101
 C         -0.9843677816       -3.2773676324       -2.1206526806
 H         -0.3113684573       -3.7935164996       -2.7903894932
 H         -1.1410572811       -2.2405057917       -2.3724774443
 H         -2.2333907336       -5.0913224252       -1.7928722684
 H         -3.0623037167       -3.5395336077       -1.3704104994
 H         -0.2833878242       -4.4445161981       -0.3797570920
