  62
        -98.94242773
 C          1.8012685430        1.5722827327        0.0419895815
 C          1.5011410294        0.1911700011        0.1562236876
 C          2.6023921470       -0.6578265154        0.6356656996
 C          3.7925398234       -0.1136294921        0.9426466527
 C          5.0033202082       -0.8527333193        1.4445924864
 C          5.8418086335       -1.5023283596        0.3349140410
 C          5.2209204882       -2.7410283094       -0.3127580834
 H          6.0044687082       -3.2177980994       -0.9052394860
 H          4.9272234831       -3.4465597668        0.4650609649
 C          4.0218674056       -2.4476783619       -1.2256701768
 H          4.0147641416       -1.3868543229       -1.4864779408
 H          4.1309817557       -3.0048958970       -2.1588455712
 C          2.6648753989       -2.8205571914       -0.6284224524
 H          2.6154914811       -3.9023662991       -0.4861595990
 H          1.8860153371       -2.5355356882       -1.3399687423
 C          2.3576500734       -2.1346626007        0.7086275945
 H          1.2985406539       -2.2772757003        0.9337575836
 H          2.9529330624       -2.5793138946        1.5057574680
 H          6.0460952168       -0.7526804750       -0.4332957821
 H          6.7980333006       -1.7913805134        0.7773485810
 H          5.6249690723       -0.1174190797        1.9601827794
 H          4.6977671792       -1.6131566737        2.1639686421
 O          4.0310719520        1.2221959113        0.8464382985
 C          3.0468232468        2.0915184585        0.4042300711
 O          3.3959045555        3.2892954212        0.3847284607
 O          0.3873440429       -0.3200882657       -0.1204290824
 C          0.7573586625        2.5773939056       -0.4161854172
 C         -0.5550522055        2.2721764382        0.2617209064
 C         -0.6303842127        2.3760267652        1.6479158511
 C         -1.7931956800        2.0519322151        2.3200633590
 C         -2.9094713507        1.6205887949        1.6247175747
 C         -2.8450626455        1.5177872791        0.2422544258
 C         -1.6774506698        1.8502919498       -0.4316854899
 H         -1.6382496431        1.7401938235       -1.5040787734
 N         -3.9742747510        1.0801304271       -0.4783059315
 S         -4.6485372487       -0.3972822882       -0.0710571614
 O         -5.5460847520       -0.7079409087       -1.1618662129
 O         -5.2501445753       -0.2994026752        1.2352753911
 C         -3.3002780734       -1.5621251197       -0.0430125962
 C         -2.8844173064       -2.1099573761       -1.2396122805
 C         -1.8219192588       -2.9972713143       -1.2366707859
 C         -1.1942311386       -3.3163003086       -0.0433738069
 C         -1.6190681925       -2.7512901832        1.1481011176
 C         -2.6804892695       -1.8616750135        1.1519495613
 H         -3.0401078116       -1.4024582028        2.0584100566
 H         -1.1236899317       -2.9958573314        2.0746858700
 H         -0.3657289832       -4.0074827545       -0.0441628379
 H         -1.4828132708       -3.4333700120       -2.1629003670
 H         -3.4069188790       -1.8456719598       -2.1453569975
 H         -3.8426181622        1.1189182507       -1.4793654077
 H         -3.8206763853        1.3491072357        2.1327708464
 H         -1.8321719382        2.1319615908        3.3962387853
 H          0.2457626310        2.6989949987        2.1945995712
 H          1.1145028664        3.5519655868       -0.0451453702
 C          0.6393029419        2.7039857240       -1.9279597004
 C          1.8327322325        2.4982128336       -2.8109354782
 C          0.7029663061        1.5152949877       -2.8381510382
 H          0.0620180005        1.5000058682       -3.7080498920
 H          0.8492933469        0.5472605945       -2.3858490272
 H          1.9651408306        3.1572981437       -3.6558664744
 H          2.7592096500        2.2055881775       -2.3386283467
 H         -0.0363974638        3.5044535855       -2.2148078215
