  62
        -98.94531168
 C         -2.2207394894       -0.8212293026        0.0581044112
 C         -2.4426357493        0.0913647968        1.1176017518
 C         -2.6570838708        1.4877967068        0.7264071025
 C         -2.6438998020        1.8247625474       -0.5763405973
 C         -2.9034485735        3.1969281074       -1.1356740965
 C         -1.6613248043        4.0961096084       -1.1739752870
 C         -1.1822898337        4.6029344282        0.1864792728
 H         -0.4356081245        5.3758952189       -0.0034498074
 H         -2.0137437937        5.0759085473        0.7101010337
 C         -0.5568576021        3.5232430783        1.0808018819
 H          0.3709273979        3.9017483089        1.5153126813
 H         -0.2900707819        2.6546584788        0.4736395313
 C         -1.4462347409        3.0695504471        2.2392440823
 H         -0.9183194698        2.2867894672        2.7905843316
 H         -1.6127576311        3.9052612166        2.9224908328
 C         -2.8104233408        2.5103993861        1.8113000831
 H         -3.2667504397        2.0184064454        2.6737660832
 H         -3.4629853617        3.3199137358        1.4854852640
 H         -0.8554512442        3.5438932093       -1.6597194879
 H         -1.9025127255        4.9607934085       -1.7962645165
 H         -3.6930645035        3.6825147365       -0.5617912557
 H         -3.2560500242        3.0533468276       -2.1593075663
 O         -2.4027767820        0.9227295080       -1.5629815879
 C         -2.1496580007       -0.4108464619       -1.2735863087
 O         -1.8877624909       -1.1071518113       -2.2715628392
 O         -2.4605461481       -0.2468466538        2.3326306616
 C         -1.9788561380       -2.2825339125        0.3971465403
 C         -0.5374102679       -2.6127498712        0.0995597591
 C         -0.1342806279       -3.5412601305       -0.8494552916
 C          1.2133254221       -3.7507199593       -1.0927453327
 C          2.1813751021       -3.0543933488       -0.3929902532
 C          1.7875263020       -2.1227369396        0.5616750476
 C          0.4382256421       -1.9107310308        0.7993463887
 H          0.1289962620       -1.1861020314        1.5422907792
 N          2.7571213020       -1.4217620591        1.3056816271
 S          3.9377218107       -0.5164053978        0.5511996167
 O          4.6247572307       -1.3415743868       -0.4090523242
 O          4.7416386311        0.0284563524        1.6203596563
 C          3.1098812090        0.8210117419       -0.2960097621
 C          2.2375917785        0.5356175616       -1.3283168316
 C          1.6263718671        1.5856831414       -1.9960516207
 C          1.9060217963        2.8942920115       -1.6321291103
 C          2.7745782369        3.1636224217       -0.5858951108
 C          3.3787030183        2.1185312419        0.0932982383
 H          4.0624092987        2.2791883221        0.9110948978
 H          2.9832168163        4.1822105018       -0.3013908005
 H          1.4473551653        3.7096791414       -2.1691612396
 H          0.9334361867        1.3706597312       -2.7952509202
 H          2.0433260691       -0.4893654184       -1.6025486519
 H          2.3682836322       -0.8943803098        2.0743803677
 H          3.2316246521       -3.2029709379       -0.5828966940
 H          1.5149750121       -4.4715174587       -1.8376782733
 H         -0.8723121078       -4.0932925308       -1.4070308313
 H         -2.1239445871       -2.3552823132        1.4847882704
 C         -2.9782868477       -3.1871559530       -0.2885925093
 C         -3.2388298862       -4.5565172635        0.2617290603
 C         -4.2775708770       -3.4849335244        0.3954662215
 H         -5.1719862874       -3.5539106349       -0.2052666078
 H         -4.4403522766       -3.0478817450        1.3699482719
 H         -3.4222162061       -5.3648662033       -0.4295916000
 H         -2.6955152453       -4.8497393735        1.1473414897
 H         -3.0018776287       -3.0545624626       -1.3637272692
