  62
        -98.93444092
 C          2.2478189731       -0.8095288088        0.0096256969
 C          3.1574235254       -0.4809022746       -1.0268894312
 C          4.1924907938        0.5278136591       -0.7331650179
 C          4.2095929959        1.0939277556        0.4874004203
 C          5.1859830460        2.1010887174        1.0330659090
 C          6.5356167846        1.4684954818        1.4124336744
 C          7.0792360460        0.4571863126        0.4061085217
 H          7.9670070831       -0.0044117960        0.8465523937
 H          6.3422854760       -0.3348124037        0.2599679580
 C          7.4783885796        1.0362302164       -0.9490799109
 H          8.2562032499        1.7887593284       -0.8010041854
 H          7.9118042404        0.2216643408       -1.5349594370
 C          6.3486693504        1.6625901737       -1.7685879472
 H          6.7313205395        1.8211660651       -2.7810778149
 H          6.0835217061        2.6429960616       -1.3822489094
 C          5.1020860571        0.7940736653       -1.9081653187
 H          5.3924419695       -0.1908379604       -2.2909191923
 H          4.4610623396        1.2269686215       -2.6856895430
 H          6.4080285150        0.9509193760        2.3663798593
 H          7.2633518674        2.2684944071        1.5578659290
 H          5.3219158935        2.9103452883        0.3217910661
 H          4.7338014199        2.5218117210        1.9339609542
 O          3.3048970457        0.7622303302        1.4508432581
 C          2.3109741140       -0.1822006910        1.2533672318
 O          1.5767928408       -0.3466617951        2.2475426995
 O          3.1187171116       -1.0255054180       -2.1628692857
 C          1.2193440721       -1.8814861460       -0.3037059249
 C         -0.0948988593       -1.2911345596       -0.7440655983
 C         -0.7264199313       -1.7306361625       -1.9013483650
 C         -1.9537201611       -1.2112468121       -2.2757355575
 C         -2.5774399731       -0.2492671023       -1.5013765386
 C         -1.9523845354        0.1985476464       -0.3451807825
 C         -0.7195179390       -0.3168382592        0.0226714695
 H         -0.2459669250        0.0267252975        0.9312617596
 N         -2.5994793609        1.1632283388        0.4626885723
 S         -3.9539573152        0.5657995923        1.2731111108
 O         -4.1538395745        1.4454490763        2.4036352860
 O         -3.8043659204       -0.8410506660        1.5697006119
 C         -5.2756064805        0.8030546679        0.1048043292
 C         -5.6053381603        2.0965638873       -0.2505443807
 C         -6.6283787597        2.2988664262       -1.1630429680
 C         -7.3008521958        1.2107881277       -1.6999142568
 C         -6.9595061064       -0.0812808881       -1.3302166321
 C         -5.9364863870       -0.2908906316       -0.4184169273
 H         -5.6322110325       -1.2762878505       -0.1041382047
 H         -7.4836732174       -0.9254856882       -1.7484395831
 H         -8.0963682398        1.3710074186       -2.4104375130
 H         -6.8972929634        3.3019360052       -1.4525989353
 H         -5.0600932225        2.9115223239        0.1957020462
 H         -1.9736422926        1.5690274382        1.1460415281
 H         -3.5338510025        0.1586137759       -1.7851121737
 H         -2.4311200997       -1.5609385464       -3.1780764292
 H         -0.2440382520       -2.4799849748       -2.5117866505
 H          1.6414574803       -2.4249035096       -1.1639030652
 C          1.0517213551       -2.8871083263        0.8291827862
 C         -0.1842676922       -3.0141111550        1.6643700607
 C          0.1477837158       -4.0719021052        0.6573376048
 H          0.4834743467       -5.0362303339        1.0072331129
 H         -0.4553566279       -4.1091980576       -0.2372521824
 H         -0.0540305745       -3.2333355101        2.7136568030
 H         -1.0215067870       -2.3611604855        1.4682142119
 H          1.9895743161       -3.0659929986        1.3464256031
