  62
        -98.94544757
 C          2.4804169837        1.1946010706       -0.0030102085
 C          3.2214457014        0.4371349395        0.9346263794
 C          3.8946215706       -0.7543825895        0.4064909218
 C          3.7840405554       -1.0594519762       -0.8994930647
 C          4.4262022069       -2.2317465712       -1.5907110121
 C          3.6280619229       -3.5377965079       -1.4745252249
 C          3.6509393510       -4.1935449024       -0.0931325111
 H          3.2389434451       -5.1979821242       -0.2085339978
 H          4.6836185507       -4.3003785387        0.2402358641
 C          2.8381679938       -3.4479436773        0.9747421345
 H          2.1487665031       -2.7537272994        0.4865565912
 H          2.2264944007       -4.1618000849        1.5316479528
 C          3.6834821409       -2.6809204682        1.9922552506
 H          3.0084367803       -2.1627781061        2.6784678248
 H          4.2799835748       -3.3853348340        2.5758504863
 C          4.6235485959       -1.6374791074        1.3740726945
 H          5.4621198075       -2.1303175859        0.8833058493
 H          5.0081907536       -1.0046475418        2.1774991954
 H          2.5933864764       -3.3432208428       -1.7685426349
 H          4.0499172809       -4.2428512619       -2.1944614031
 H          5.4324780481       -2.3827590841       -1.1990960048
 H          4.4990976664       -1.9668043620       -2.6476310692
 O          3.0659883100       -0.3019538810       -1.7709780236
 C          2.3750294968        0.8242145562       -1.3439713168
 O          1.7269295655        1.3977496544       -2.2392678540
 O          3.3100530808        0.7385360432        2.1557561113
 C          1.7235915961        2.4201692676        0.4766152123
 C          0.2430649004        2.2159056477        0.2655041108
 C         -0.5863586016        3.1544632990       -0.3328750110
 C         -1.9321333847        2.8845260702       -0.5152220738
 C         -2.4799290196        1.6842875907       -0.1024296209
 C         -1.6604625568        0.7401471795        0.5028705274
 C         -0.3153373836        1.0151048752        0.6878095579
 H          0.3224203615        0.2752085372        1.1573741383
 N         -2.2088950627       -0.4828142899        0.9344479944
 S         -3.0506729071       -1.3948224849       -0.2008978983
 O         -2.9425478446       -2.7623356658        0.2601608101
 O         -2.5900199288       -1.1296721808       -1.5442391248
 C         -4.7338654827       -0.8485500186       -0.0062363150
 C         -5.4098931441       -0.2982693295       -1.0773504884
 C         -6.7182806356        0.1236962199       -0.8978434556
 C         -7.3236426401       -0.0126518028        0.3420487352
 C         -6.6317803974       -0.5710931236        1.4066702474
 C         -5.3239420296       -0.9949618780        1.2339841726
 H         -4.7518589718       -1.4376572699        2.0321107394
 H         -7.1061729993       -0.6764052180        2.3690027737
 H         -8.3411102749        0.3178037825        0.4791056877
 H         -7.2577359460        0.5574117874       -1.7244468209
 H         -4.8958658261       -0.2082055370       -2.0212918113
 H         -1.5443185117       -1.0676993159        1.4211489187
 H         -3.5254619312        1.4685233516       -0.2494598775
 H         -2.5633896433        3.6205635999       -0.9891519265
 H         -0.1775550842        4.0931630666       -0.6683887788
 H          1.9102978594        2.4720477500        1.5599162592
 C          2.2667315583        3.6753777378       -0.1715838269
 C          2.1688465879        4.9925284428        0.5368281989
 C          3.4962960340        4.3109093590        0.4025443476
 H          4.2261873001        4.7261998142       -0.2759452917
 H          3.9284876545        3.8508544220        1.2792612062
 H          1.9893466988        5.8809686117       -0.0494420450
 H          1.7013956595        5.0027843934        1.5097114444
 H          2.1678349531        3.6620374103       -1.2511548397
