  62
        -98.94803637
 C         -1.2549493592       -1.0631017405       -0.0370079697
 C         -1.6224577197       -0.0130344903        0.8371476799
 C         -2.6417953598        0.9130967993        0.3348593492
 C         -3.1138489694        0.7686099187       -0.9165697209
 C         -4.1288159894        1.6547781382       -1.5865265315
 C         -5.5852993394        1.3017175480       -1.2544622018
 C         -6.0378693700        1.6654389583        0.1602719379
 H         -5.8020064303        2.7117667285        0.3570757277
 H         -7.1248709400        1.5661342281        0.1837884676
 C         -5.4372199901        0.7834176689        1.2636352384
 H         -5.0306287697       -0.1280478512        0.8195839488
 H         -6.2252475002        0.4792729289        1.9560794083
 C         -4.3439781505        1.4603015894        2.0903061385
 H         -3.9652333006        0.7363361898        2.8161381689
 H         -4.7690243909        2.3009979095        2.6430165081
 C         -3.1550770504        1.9702923494        1.2650605587
 H         -3.4366655104        2.8633755192        0.7070091183
 H         -2.3446704707        2.2316944899        1.9504111089
 H         -5.7307848091        0.2318262679       -1.4205525615
 H         -6.2190941693        1.8376817276       -1.9647369022
 H         -3.9810538990        1.5360674979       -2.6623051414
 H         -3.9338353698        2.6955259484       -1.3248458818
 O         -2.6913044389       -0.2190699714       -1.7499978304
 C         -1.7601985188       -1.1607385411       -1.3331013398
 O         -1.4709926583       -2.0114219913       -2.1963084394
 O         -1.1154776901        0.1456944602        1.9809868400
 C         -0.2125733491       -2.0655959601        0.4183612010
 C          1.0400102611       -1.9560334900       -0.4175576386
 C          1.8376839315       -3.0471504499       -0.7407816680
 C          2.9938093817       -2.8726579999       -1.4817870977
 C          3.3943000815       -1.6140699899       -1.8929880080
 C          2.6059794711       -0.5157742000       -1.5696944286
 C          1.4400811110       -0.6978210701       -0.8443902189
 H          0.8227829707        0.1601220798       -0.6286227494
 N          2.9676202409        0.7833472799       -1.9568829189
 S          2.6523616903        2.0632917102       -0.9268318695
 O          1.2504526002        2.3994597198       -0.9503845100
 O          3.5555264601        3.1041523503       -1.3711489195
 C          3.1528634599        1.4817267709        0.6839078409
 C          2.2204242797        1.1647968810        1.6496683407
 C          2.6608707094        0.6616468015        2.8643432410
 C          4.0160318294        0.4859051019        3.0929314615
 C          4.9421609296        0.8183823918        2.1153137817
 C          4.5084599299        1.3174259813        0.8988745014
 H          5.1965439501        1.5983066712        0.1181373515
 H          5.9966041596        0.6865960221        2.2966888320
 H          4.3510110392        0.0904977023        4.0388644217
 H          1.9313947993        0.4057764515        3.6163903209
 H          1.1684172597        1.3030978206        1.4544753403
 H          3.8739650310        0.8635030100       -2.3935436187
 H          4.2989682617       -1.4807499499       -2.4658344178
 H          3.5982679120       -3.7299698098       -1.7357927172
 H          1.5495410417       -4.0346657499       -0.4195879778
 H          0.0489525105       -1.7651149997        1.4452434110
 C         -0.7912960087       -3.4652222802        0.4540553713
 C         -0.3344491288       -4.4513364598        1.4863028418
 C         -1.6992534290       -3.8415212901        1.5855883211
 H         -2.5605297388       -4.4570201204        1.3734496811
 H         -1.8736957294       -3.0967576999        2.3486247608
 H         -0.2602492385       -5.4916007198        1.2071120821
 H          0.4149802609       -4.1271170693        2.1923055619
 H         -1.0441285583       -3.8340377306       -0.5335149987
