  62
        -98.94087800
 C          1.5754358099        0.6583036005        0.3980505497
 C          2.6788696800        0.9009470302       -0.4576254603
 C          3.6080980297       -0.2273142900       -0.6282077903
 C          3.3499130693       -1.4116045400       -0.0471240103
 C          4.1841630890       -2.6584711102       -0.1622550403
 C          5.3635188889       -2.7134288806        0.8184793097
 C          6.5236094792       -1.7709916009        0.4952027398
 H          7.3627038191       -2.0673072112        1.1278794698
 H          6.8306758492       -1.9160878810       -0.5410019602
 C          6.2208233497       -0.2863097608        0.7414177098
 H          5.3417256397       -0.1956065306        1.3838772998
 H          7.0557107698        0.1715997089        1.2768553498
 C          5.9926432899        0.5334112392       -0.5287344202
 H          6.9126302499        0.5606368590       -1.1168669802
 H          5.7504235902        1.5583724693       -0.2361367402
 C          4.8576549798        0.0135921396       -1.4206063203
 H          4.6338194400        0.7768097397       -2.1698108102
 H          5.1680802295       -0.8979368305       -1.9306205303
 H          4.9923213790       -2.5023829305        1.8241535697
 H          5.7439579686       -3.7374985107        0.8134912597
 H          3.5196813287       -3.4980130800        0.0527469597
 H          4.5538798190       -2.7598838603       -1.1829666903
 O          2.2473739693       -1.6212257997        0.7216404297
 C          1.3588852096       -0.5920953094        0.9826357097
 O          0.4195799095       -0.9102854491        1.7402135797
 H         -2.1129626699        1.3699753616        1.2181798997
 C         -1.9001529398        1.4549746716        0.1632583497
 C         -0.5970455098        1.6400911112       -0.2723733503
 C         -0.3521710697        1.7336673411       -1.6397838203
 C         -1.3950556097        1.6517444615       -2.5432448403
 C         -2.6936453098        1.4538378218       -2.1054975604
 C         -2.9469143498        1.3492253019       -0.7435151104
 N         -4.2547532999        1.1491994223       -0.2675027204
 S         -4.5448477703       -0.0741306176        0.8408066196
 O         -5.9840338503       -0.2205676372        0.8430634096
 O         -3.9385511302        0.2538541322        2.1043716896
 C         -3.7951806307       -1.5186364579        0.1119098396
 C         -2.4737748608       -1.8233993583        0.3672198296
 C         -1.9045983211       -2.9093563084       -0.2807881704
 C         -2.6565856113       -3.6670193982       -1.1641977604
 C         -3.9852857512       -3.3496532878       -1.4055007504
 C         -4.5592427009       -2.2632279076       -0.7672880404
 H         -5.5900381308       -1.9860185973       -0.9188396704
 H         -4.5709603814       -3.9431313976       -2.0889454805
 H         -2.2049337716       -4.5097737283       -1.6635403604
 H         -0.8703343312       -3.1449779687       -0.0824728904
 H         -1.8945770206       -1.2329909784        1.0598651196
 H         -4.9559576999        1.1285761625       -0.9947502504
 H         -3.5060281698        1.3819767321       -2.8125729204
 H         -1.1948724197        1.7335516614       -3.6008143403
 H          0.6622836503        1.8757421308       -1.9807530003
 C          0.5281533103        1.7100352709        0.7274066097
 H          0.1148030501        1.4120269610        1.7049101597
 C          1.1056455407        3.1088576707        0.8933349497
 C          0.7974021110        4.2514625308       -0.0223411103
 C          0.2136103710        4.2231225309        1.3560026497
 H          0.5868295112        4.9144487908        2.0964379797
 H         -0.8403851091        4.0043345712        1.4485843897
 H          0.1371924910        4.0782453610       -0.8571179903
 H          1.5949802012        4.9466498705       -0.2354945602
 H          2.1074420307        3.0873261704        1.3095613097
 O          2.8943000704        1.9838980302       -1.0571726703
