  62
        -98.93677314
 C         -2.4563575012       -0.4859371014       -0.1523228560
 C         -2.0394419833       -1.5242014714       -1.0168142753
 C         -1.3253157583       -2.6426482978       -0.3903745946
 C         -1.1244418866       -2.6289167366        0.9398897964
 C         -0.4092698585       -3.7019744174        1.7095929267
 C          1.0860128507       -3.3968179924        1.8628308114
 C          1.7892261255       -3.0374562783        0.5536529217
 H          1.4267527716       -2.0653507444        0.2111351358
 H          2.8510817209       -2.9138053110        0.7815590303
 C          1.6262949191       -4.0664703338       -0.5729530784
 H          2.5945818106       -4.2034956394       -1.0587201596
 H          1.3293974952       -5.0307960211       -0.1578520122
 C          0.6369016963       -3.6529796484       -1.6645371195
 H          0.7954494081       -4.2987020099       -2.5328567670
 H          0.8492831302       -2.6253204615       -1.9736954398
 C         -0.8475230812       -3.7488895430       -1.2880044802
 H         -1.4325963702       -3.6591931138       -2.2082478584
 H         -1.0535598501       -4.7253531611       -0.8434169921
 H          1.5689424423       -4.2671735046        2.3122654672
 H          1.1971287723       -2.5493304834        2.5431047476
 H         -0.5456651022       -4.6543235529        1.1999507755
 H         -0.8590869717       -3.7633009375        2.7024819789
 O         -1.5527446835       -1.6222546311        1.7423665809
 C         -2.1823565386       -0.5038165574        1.2162802026
 O         -2.4619224698        0.3690349479        2.0580481296
 O         -2.2637046239       -1.5171721341       -2.2601221266
 C         -3.1196517662        0.7468970854       -0.7597015700
 C         -2.2648042560        1.9342459394       -0.3824588382
 C         -2.6318321723        3.1027517094        0.2710533896
 C         -1.6792979102        4.0557189339        0.5995686698
 C         -0.3403209960        3.8622362607        0.3220494064
 C          0.0405176124        2.7017555234       -0.3414367002
 C         -0.9206445253        1.7835813489       -0.7179912575
 H         -0.6032433957        0.8926201921       -1.2414071371
 N          1.3888292613        2.4132519802       -0.6333026769
 S          1.8350534194        0.8028652500       -0.3320423996
 O          1.5962058008        0.0278884774       -1.5241278845
 O          1.2074246752        0.3424473902        0.8843119182
 C          3.5929577502        0.9811467019       -0.0895674582
 C          4.4174156835        1.0365066490       -1.1972949660
 C          5.7796371225        1.2095920653       -1.0099303707
 C          6.2915288169        1.3240447107        0.2741414730
 C          5.4518651534        1.2640322923        1.3763016384
 C          4.0882906662        1.0924620415        1.1957344833
 H          3.3967268069        1.0298943673        2.0209747076
 H          5.8522523205        1.3490665241        2.3736408258
 H          7.3520529716        1.4579209625        0.4173941765
 H          6.4356126584        1.2533139879       -1.8642269273
 H          3.9733198830        0.9328181353       -2.1735498218
 H          2.0261644830        3.0556294426       -0.1807454250
 H          0.3998319889        4.5896112441        0.6194294887
 H         -1.9899726166        4.9540895560        1.1116938120
 H         -3.6505886970        3.2841721872        0.5612268969
 H         -3.0026497642        0.6107381703       -1.8493014565
 C         -4.6154227201        0.6977041492       -0.4962576424
 C         -5.3016958102        1.2129832915        0.7294392695
 C         -5.5545173697        1.8620794930       -0.5999894514
 H         -6.5123399323        1.6890880588       -1.0683328340
 H         -5.1473029624        2.8391253053       -0.8005975220
 H         -6.0852082942        0.6029861300        1.1556936839
 H         -4.6991094709        1.7082019126        1.4727714511
 H         -5.0007088693       -0.2445083575       -0.8817058116
