  62
        -98.93813238
 C          1.9805580890        1.3883854874        0.3021186370
 C          2.6259171400        0.7129796007       -0.7606021588
 C          3.7787545496       -0.1271462073       -0.3908288221
 C          4.1526540531       -0.2094131643        0.8974798066
 C          5.3146878637       -0.9680262112        1.4879675268
 C          5.5523072110       -2.3993999856        0.9852202935
 C          4.2855969514       -3.1652017271        0.5755546218
 H          4.2842600693       -4.1386963119        1.0696986957
 H          3.3963508873       -2.6292945532        0.9125257801
 C          4.1945535971       -3.4059408048       -0.9335035597
 H          3.5091438515       -4.2373976820       -1.1156078041
 H          5.1785686723       -3.7083551281       -1.2984696957
 C          3.6967953476       -2.2212255638       -1.7612367099
 H          3.7975939827       -2.4838501276       -2.8170737913
 H          2.6311919395       -2.0589264921       -1.5747673083
 C          4.4219943119       -0.8882514559       -1.5137700854
 H          5.4841424712       -1.0435639404       -1.3405002126
 H          4.2994580370       -0.2701747507       -2.4072644077
 H          6.0572092939       -2.9368873275        1.7896220591
 H          6.2407256217       -2.3796135221        0.1415149081
 H          6.2220141698       -0.3782589922        1.3293020209
 H          5.1257423963       -0.9845960300        2.5640333470
 O          3.4944297808        0.4537726658        1.8907435788
 C          2.3935381669        1.2505422862        1.6252172825
 O          1.8740421289        1.7664060314        2.6365800546
 H         -0.0712628257       -0.1386927966        0.7580428876
 C         -0.6238737521        0.2150373316       -0.1043855579
 C         -0.3139596943        1.4594963616       -0.6402085180
 C         -1.0442570060        1.9082840690       -1.7323789766
 C         -2.0306631707        1.1133923422       -2.2916834857
 C         -2.3167793126       -0.1352089012       -1.7726936466
 C         -1.6071779117       -0.5845284602       -0.6655066448
 N         -1.9015634347       -1.8442720929       -0.1173946770
 S         -3.5115243984       -2.2590369003        0.0753658893
 O         -3.5323248992       -3.1886781029        1.1830445885
 O         -4.0369079867       -2.7566967308       -1.1715080807
 C         -4.3409685764       -0.7414082876        0.5146253514
 C         -5.3487181098       -0.2491256243       -0.2892855185
 C         -5.9606491248        0.9446997454        0.0581630330
 C         -5.5529730692        1.6240661235        1.1953964926
 C         -4.5408464628        1.1148894146        1.9948787075
 C         -3.9275595043       -0.0794316288        1.6537983831
 H         -3.1408031913       -0.5025409054        2.2582771962
 H         -4.2237982068        1.6439964754        2.8793377970
 H         -6.0259258603        2.5557198268        1.4628577116
 H         -6.7492988916        1.3419693460       -0.5601282175
 H         -5.6316639322       -0.8082588692       -1.1661603886
 H         -1.3614358917       -2.0740466658        0.7031879234
 H         -3.0664821361       -0.7740791864       -2.2103949905
 H         -2.5811152289        1.4698839439       -3.1486444317
 H         -0.8342456623        2.8769850176       -2.1543957040
 C          0.7771613174        2.2687378870        0.0192224271
 H          0.4075877209        2.6018059724        1.0003523416
 C          1.1967785723        3.4843235889       -0.7810776458
 C          0.4602726426        4.7804867991       -0.6308447882
 C          1.8392648831        4.6321407819       -0.0638092895
 H          2.6562227131        5.1490088543       -0.5445659050
 H          1.9486628712        4.5471325292        1.0078793853
 H         -0.3693499952        4.8079580063        0.0591138797
 H          0.3321632642        5.4048496398       -1.5021609614
 H          1.5869654186        3.2234384129       -1.7580096588
 O          2.2653242712        0.8089853649       -1.9616053608
