  62
        -98.94563090
 C         -1.4694944558       -1.3670885916       -0.6510761324
 C         -2.7654191231       -1.2529765531       -0.0821082206
 C         -3.5697355306       -0.1047765155       -0.5083056415
 C         -3.0697451868        0.7565363493       -1.4122775633
 C         -3.7625590411        1.9788813331       -1.9502721837
 C         -3.6149030448        3.2138966039       -1.0510341193
 C         -4.4393585013        3.1806615089        0.2366297597
 H         -4.4201459191        4.1890941147        0.6547234901
 H         -5.4771265917        2.9461661781       -0.0031512999
 C         -3.9189880107        2.1992797842        1.2965443019
 H         -3.9053706614        2.6914458470        2.2719902250
 H         -2.8852414247        1.9273067627        1.0659393440
 C         -4.7503632482        0.9243697259        1.4445895336
 H         -5.7471592426        1.1788775907        1.8118147883
 H         -4.2673561438        0.2878062061        2.1904705021
 C         -4.8976719331        0.1107026540        0.1523680602
 H         -5.3043591075       -0.8703651103        0.4097690080
 H         -5.5863945699        0.6083684830       -0.5299298320
 H         -3.9262757736        4.0834628189       -1.6348336003
 H         -2.5576799862        3.3404090179       -0.8029264541
 H         -4.8200375995        1.7646122737       -2.1078164564
 H         -3.3027025086        2.1990319530       -2.9160582071
 O         -1.8435966713        0.5928907023       -1.9679812828
 C         -0.9974536846       -0.4374247947       -1.5775005808
 O          0.1074331753       -0.4055150368       -2.1535806793
 O         -3.2301508484       -2.0832169443        0.7450171348
 C         -0.6142942169       -2.5104275617       -0.1285623436
 C          0.1343118893       -2.0402026895        1.0975019848
 C         -0.0570588340       -2.6528122655        2.3293455593
 C          0.5863076978       -2.1739672354        3.4570758861
 C          1.4144692446       -1.0704706250        3.3770124973
 C          1.6169101808       -0.4513572137        2.1462170816
 C          0.9969043063       -0.9552469958        1.0129654445
 H          1.1449718032       -0.4684056136        0.0637996817
 N          2.4588398985        0.6611307731        2.0531218449
 S          2.3371120405        1.8370494578        0.8681827022
 O          2.8996277226        3.0159011602        1.4969419130
 O          0.9893526974        1.9702331288        0.3695877947
 C          3.4782030249        1.2705887581       -0.3753178594
 C          3.0416594306        0.7811768295       -1.5883332574
 C          3.9839402796        0.3331943055       -2.5033847256
 C          5.3334577372        0.3825820118       -2.1940587867
 C          5.7556561776        0.8824691623       -0.9706933559
 C          4.8215087651        1.3303805835       -0.0527109373
 H          5.1049740798        1.7372595597        0.9037020292
 H          6.8061828660        0.9221919324       -0.7318075610
 H          6.0588999485        0.0305510838       -2.9105845398
 H          3.6482304300       -0.0556070450       -3.4516963629
 H          1.9855491583        0.7382060664       -1.8077805937
 H          2.7766627219        1.0367189815        2.9335634451
 H          1.8981259630       -0.6807921339        4.2597843660
 H          0.4278579398       -2.6538931614        4.4109249955
 H         -0.7340178751       -3.4908232356        2.4041225841
 H         -1.3277993124       -3.2813262234        0.1946973331
 C          0.3278941908       -3.1254744566       -1.1413939154
 C          0.7940637978       -4.5342446098       -0.9323079381
 C         -0.1688939027       -4.2190259003       -2.0365672260
 H          0.1824708550       -4.2460717272       -3.0568281671
 H         -1.1972097181       -4.5298884974       -1.9218993191
 H          1.8114131363       -4.7821044651       -1.1924264665
 H          0.4184350897       -5.0637003866       -0.0698517583
 H          1.0305946835       -2.4204468247       -1.5643556180
