  62
        -98.94291526
 C          2.6492250459        1.1854472688        0.2515641323
 C          2.7710490919        0.3311283650       -0.8709889805
 C          3.7779027363       -0.7361248320       -0.7616643519
 C          4.5236914146       -0.8379604455        0.3526580703
 C          5.5366405097       -1.9129930860        0.6165780803
 C          4.9000824546       -3.1099021655        1.3371101620
 C          3.6083066057       -3.6067069945        0.6878090240
 H          2.8407924281       -2.8350517936        0.7839649626
 H          3.2676604349       -4.4711069223        1.2617997923
 C          3.7503935269       -3.9982972207       -0.7897219991
 H          3.2349328669       -4.9472630762       -0.9518007695
 H          4.8019610050       -4.1557190740       -1.0321499624
 C          3.1498542554       -2.9920473514       -1.7732529030
 H          2.1232241465       -2.7596195249       -1.4781797999
 H          3.1080002415       -3.4633310227       -2.7589804972
 C          3.9173588417       -1.6729733693       -1.9289380640
 H          3.4989779516       -1.1446176883       -2.7906719213
 H          4.9695420290       -1.8809223444       -2.1328274473
 H          4.6747975467       -2.8152245434        2.3646049847
 H          5.6294019281       -3.9213580453        1.3682640087
 H          5.9738441697       -2.2335491073       -0.3269889831
 H          6.3230366364       -1.4963063539        1.2480709906
 O          4.3993532934        0.0149808149        1.4001097425
 C          3.4622748047        1.0313509682        1.3806573088
 O          3.4517076882        1.7323636970        2.4119381578
 H          0.0627983203        0.7259423363       -1.1674728043
 C         -0.4193987166        1.0205310056       -0.2470433097
 C          0.2621981901        1.8366986155        0.6443697157
 C         -0.3686096199        2.1980727369        1.8291682744
 C         -1.6471028835        1.7498195779        2.1113170601
 C         -2.3197765132        0.9295466693        1.2232748240
 C         -1.6980658181        0.5616585304        0.0372077688
 N         -2.3560916227       -0.2950016368       -0.8610705625
 S         -3.9433741650        0.0423070135       -1.2837616278
 O         -4.1388097269       -0.5949061789       -2.5675968629
 O         -4.2211597971        1.4586689121       -1.2211224085
 C         -4.9034829561       -0.8224067232       -0.0582603535
 C         -4.6613668923       -2.1695438097        0.1265246468
 C         -5.4080250586       -2.8606352469        1.0672130777
 C         -6.3808648464       -2.1977732254        1.8007934199
 C         -6.6141683815       -0.8458263469        1.6011794831
 C         -5.8699392369       -0.1484316621        0.6621892836
 H         -6.0125023695        0.9043305657        0.4769222003
 H         -7.3709838578       -0.3324143219        2.1722029699
 H         -6.9602658403       -2.7384083164        2.5324653522
 H         -5.2290066455       -3.9119847951        1.2254480088
 H         -3.8984681388       -2.6477508298       -0.4650609865
 H         -1.8038649715       -0.5220485874       -1.6757017107
 H         -3.3147142300        0.5758039676        1.4392142694
 H         -2.1245340588        2.0391488953        3.0350861070
 H          0.1556694123        2.8264302337        2.5345943902
 C          1.6533325553        2.3335101116        0.3275856726
 H          1.9853322078        2.9532242229        1.1711127392
 C          1.6477761034        3.1954075621       -0.9208084402
 C          1.1430873662        4.6025265196       -0.8284716164
 C          2.6060663230        4.3416295021       -1.0239823183
 H          3.0475308894        4.5589036079       -1.9850449653
 H          3.2707633003        4.5134508354       -0.1896285084
 H          0.8162145953        4.9542141188        0.1384479565
 H          0.5749706948        5.0010241345       -1.6551522643
 H          1.4366306871        2.6434461403       -1.8271061971
 O          2.0855137570        0.4284854674       -1.9253921905
