  62
        -98.93991152
 C         -2.4898938739       -1.0375712550        0.3636937373
 C         -2.4241431388        0.1381608533        1.1572867282
 C         -3.4719914753        1.1383190714        0.9289030139
 C         -4.4420049081        0.8916749777        0.0300354571
 C         -5.6090494157        1.7873903457       -0.2861946181
 C         -5.2960585538        2.8892322552       -1.3072993915
 C         -4.4138053290        4.0245480194       -0.7870288349
 H         -4.4525794229        4.8261893091       -1.5270693077
 H         -4.8347348559        4.4155640375        0.1396741231
 C         -2.9464626919        3.6326160440       -0.5621232855
 H         -2.7300752101        2.7015693482       -1.0916703712
 H         -2.2936646512        4.3984602179       -0.9871137823
 C         -2.5499683054        3.4668505252        0.9052915471
 H         -2.6279911465        4.4287436444        1.4173155093
 H         -1.5037526832        3.1495017237        0.9430183752
 C         -3.3869120696        2.4357902257        1.6741259694
 H         -4.3843890460        2.8302698838        1.8679817636
 H         -2.8946529457        2.2387256382        2.6297449639
 H         -6.2490446447        3.3160518882       -1.6280247518
 H         -4.8245338731        2.4326639297       -2.1804177796
 H         -6.3885024331        1.1447912039       -0.7010190086
 H         -5.9821757485        2.2379042703        0.6339390043
 O         -4.4838255303       -0.2541620038       -0.6960694890
 C         -3.5046697644       -1.2314956160       -0.5741708507
 O         -3.6781622768       -2.1984689888       -1.3406559159
 O         -1.5376527352        0.3344710895        2.0327982240
 C         -1.3979028106       -2.0720803710        0.5804507265
 C         -0.3368990820       -1.9650867684       -0.4894295281
 C         -0.5697733111       -2.3806800619       -1.7965857017
 C          0.4218904542       -2.2615262117       -2.7527874866
 C          1.6571971302       -1.7294249391       -2.4286384842
 C          1.9017971819       -1.3143037789       -1.1244360991
 C          0.9049146325       -1.4353618864       -0.1663353903
 H          1.0976949307       -1.0920234884        0.8393248491
 N          3.1663631491       -0.8161748857       -0.7653398599
 S          3.2883389620        0.3917803327        0.4072919763
 O          3.1132214718       -0.2027459754        1.7080019077
 O          2.4217061555        1.5008223610        0.0747730103
 C          4.9984515296        0.8493885766        0.1913980039
 C          5.9694235303       -0.0046489919        0.6802661928
 C          7.3033347370        0.3216630151        0.4960848315
 C          7.6430165137        1.4905261775       -0.1693619323
 C          6.6579772452        2.3389703683       -0.6515058073
 C          5.3213434706        2.0172057459       -0.4725396371
 H          4.5213909785        2.6487783952       -0.8244003344
 H          6.9248311753        3.2484846427       -1.1651697765
 H          8.6820294402        1.7429039479       -0.3107612417
 H          8.0718119449       -0.3343355253        0.8719305367
 H          5.6574458931       -0.8960531963        1.1988658522
 H          3.7361505543       -0.5937028072       -1.5708665515
 H          2.4285389347       -1.6379923548       -3.1783453635
 H          0.2285044099       -2.5824273455       -3.7653517940
 H         -1.5400117387       -2.7719001357       -2.0593832519
 H         -0.9290071336       -1.7923692371        1.5344214799
 C         -1.9216186737       -3.4894156364        0.7031945872
 C         -1.0517461344       -4.5249044024        1.3479773350
 C         -2.2736602911       -4.0247425247        2.0569930604
 H         -3.1263766896       -4.6810667066        2.1446835009
 H         -2.1390608091       -3.3680771567        2.9045195855
 H         -1.0624382513       -5.5274843589        0.9492555703
 H         -0.0872812748       -4.2057540723        1.7144929360
 H         -2.5426914752       -3.7963199364       -0.1276638837
