  62
        -98.93475204
 C         -2.2172548567        0.6804935420       -0.7459990672
 C         -2.6265025167        0.4123359720        0.5848666668
 C         -3.5154401006       -0.7493750392        0.7582074996
 C         -3.8298223130       -1.5123568095       -0.3026433765
 C         -4.7684845721       -2.6827877707       -0.2743568797
 C         -6.2089504299       -2.2466883202       -0.5778615198
 C         -6.6765202995       -1.0428875659        0.2403224883
 H         -6.0935076727       -0.1662468717       -0.0509335024
 H         -7.7142594764       -0.8455228942       -0.0369752428
 C         -6.5804215788       -1.2322231022        1.7606176604
 H         -6.4970894635       -2.2936158885        1.9970548336
 H         -7.5037781823       -0.8698085894        2.2172718153
 C         -5.4282990831       -0.4740450054        2.4225861486
 H         -5.4537012740        0.5738590580        2.1135630068
 H         -5.5812854237       -0.5005733639        3.5046698911
 C         -4.0230812463       -1.0233233712        2.1459877656
 H         -3.3278920742       -0.5187811309        2.8233256195
 H         -3.9958428246       -2.0932716151        2.3620964746
 H         -6.8714443904       -3.0943543791       -0.3934951388
 H         -6.2754392169       -1.9875105598       -1.6371264241
 H         -4.4469447618       -3.3998416432       -1.0317647662
 H         -4.7193376061       -3.1574447324        0.7037773688
 O         -3.3529010709       -1.2700483673       -1.5511529948
 C         -2.5455400440       -0.1751396696       -1.8007222578
 O         -2.1832324876       -0.0730520969       -2.9924880858
 H          0.6585871204        0.4821545847       -2.0851717161
 C          0.9326238744        0.8850531082       -1.1174849653
 C          0.0139707033        1.6787067458       -0.4355683341
 C          0.3723459647        2.1524941994        0.8206263355
 C          1.6131780746        1.8518971356        1.3573872449
 C          2.5235763170        1.0730744221        0.6678881125
 C          2.1714061272        0.5745655854       -0.5791758323
 N          3.0830016272       -0.2229212088       -1.2951345716
 S          3.7860169422       -1.5211615612       -0.4950197252
 O          4.1595168965       -2.4509140050       -1.5390369177
 O          2.9246797372       -2.0353492707        0.5452101279
 C          5.2636412853       -0.8263161963        0.2158574658
 C          6.1320190915       -0.1510059524       -0.6194872342
 C          7.2898409472        0.3901250188       -0.0841455159
 C          7.5601359731        0.2446861160        1.2685343561
 C          6.6802743934       -0.4396367164        2.0929546239
 C          5.5192145366       -0.9821909236        1.5640871249
 H          4.8016710379       -1.5150672732        2.1676996031
 H          6.8917114332       -0.5517551221        3.1442417528
 H          8.4617521093        0.6674117201        1.6828739943
 H          7.9762818373        0.9231447524       -0.7220616755
 H          5.8859265965       -0.0627502823       -1.6644599005
 H          2.7399973769       -0.5103992920       -2.2007864672
 H          3.4868637193        0.8359851303        1.0889429649
 H          1.8710973227        2.2294890187        2.3352164005
 H         -0.3246725112        2.7244548716        1.4055873946
 C         -1.3247216926        1.8646560888       -1.1073879778
 H         -1.1415031352        1.7391177805       -2.1856734226
 C         -2.0538235813        3.1970730278       -0.9935342986
 C         -2.4565668183        3.8907002336        0.2717083136
 C         -1.3848442367        4.4785150377       -0.5948286470
 H         -1.6158716348        5.3701863767       -1.1584605772
 H         -0.3632509576        4.4262209771       -0.2531566282
 H         -3.4249363807        4.3716052320        0.2809154094
 H         -2.2022824664        3.4349473615        1.2133679057
 H         -2.7787342331        3.2751269516       -1.8012208484
 O         -2.2847149589        1.0906939572        1.5838727017
