  62
        -98.94385978
 C          1.3118498611        1.4148430567        0.6270599369
 C          2.0892293141        0.9976453844       -0.4820041019
 C          3.0924495870       -0.0425602625       -0.2077740728
 C          3.2092977885       -0.5439164454        1.0340591276
 C          4.1594065054       -1.6332065949        1.4370962887
 C          3.5020834254       -3.0161347907        1.3338130087
 C          2.7927803286       -3.2742846198        0.0037149757
 H          2.4192875024       -4.3008859282        0.0323205779
 H          1.9128799200       -2.6294875427       -0.0717753114
 C          3.6769681015       -3.0895368412       -1.2375429843
 H          4.7291460955       -3.1393762798       -0.9532844646
 H          3.4858727637       -3.9174765558       -1.9237023126
 C          3.4210710948       -1.7991401036       -2.0187532424
 H          3.9119825448       -1.8882374340       -2.9918239049
 H          2.3479322622       -1.6927069730       -2.2006826878
 C          3.9304742236       -0.5087412216       -1.3640384832
 H          3.8789701976        0.2866525494       -2.1133767086
 H          4.9730414628       -0.6334447271       -1.0642195196
 H          4.2719398795       -3.7748114543        1.4892549161
 H          2.7636073408       -3.1116059473        2.1334328186
 H          4.4591975393       -1.4617354353        2.4726861296
 H          5.0421134273       -1.5909687370        0.8019113976
 O          2.4330572301       -0.1349964092        2.0697569265
 C          1.4417109483        0.8145877853        1.8810689206
 O          0.7477970618        1.0358601866        2.8948907427
 O          1.9612141606        1.4587562893       -1.6454000335
 C          0.1795336762        2.4159539692        0.4716722478
 C         -0.6866292030        2.0212108962       -0.7013918440
 C         -1.1881789355        2.9085552826       -1.6438917724
 C         -1.9952041071        2.4493296847       -2.6716488030
 C         -2.3296788228        1.1115690914       -2.7767209597
 C         -1.8285222084        0.2148554215       -1.8390632490
 C         -1.0235870570        0.6790608916       -0.8141823061
 H         -0.6127121367       -0.0269632445       -0.1098845598
 N         -2.1166860584       -1.1547595797       -1.9104555618
 S         -2.1464713692       -2.0943093334       -0.5327661468
 O         -0.8122750590       -2.3055099733       -0.0295301677
 O         -2.8642171751       -3.2851420505       -0.9353737306
 C         -3.1325382901       -1.1719102937        0.6339294552
 C         -2.5655493852       -0.6216975778        1.7647783567
 C         -3.3621048332        0.1252449249        2.6190469472
 C         -4.7056993520        0.3057552902        2.3317292098
 C         -5.2646541085       -0.2631019729        1.1969120192
 C         -4.4723619415       -1.0063232053        0.3382900470
 H         -4.8722582146       -1.4734591219       -0.5468799612
 H         -6.3116036046       -0.1267243069        0.9792875765
 H         -5.3193549043        0.8907033220        2.9983812939
 H         -2.9180750323        0.5648946889        3.4982300882
 H         -1.5162251204       -0.7724912954        1.9682505736
 H         -2.8135451298       -1.4239933800       -2.5876854269
 H         -2.9547574417        0.7588839624       -3.5824404679
 H         -2.3711989107        3.1472203538       -3.4043370130
 H         -0.9323709935        3.9538813820       -1.5901903565
 H         -0.4318709542        2.2854759221        1.3811800421
 C          0.6106425145        3.8753682555        0.4515617606
 C          1.9516231914        4.2987455903        0.9709384713
 C          1.6527605205        4.3898462065       -0.4938408297
 H          1.5127446627        5.3696933139       -0.9267551171
 H          2.1130915764        3.6761727221       -1.1579738637
 H          2.0135738567        5.2110977286        1.5453688159
 H          2.6262920287        3.5242052317        1.3070002145
 H         -0.2150171988        4.5444356102        0.6733306996
