  62
        -98.94473108
 C          1.5117229644        1.7661233683       -0.4643401730
 C          1.5427161300        0.5927144850       -1.2590196939
 C          2.7516799384       -0.2386823826       -1.1297425488
 C          3.7280736440        0.1305206993       -0.2834241896
 C          4.9829183150       -0.6495148518       -0.0204758311
 C          4.8043832096       -1.6187184377        1.1557701457
 C          3.5513216118       -2.4899850394        1.0607217847
 H          3.5599978404       -3.1666689965        1.9185605545
 H          2.6599931193       -1.8655039129        1.1618602517
 C          3.4400904344       -3.3083007015       -0.2329386213
 H          4.4166383563       -3.3803424136       -0.7147145170
 H          3.1266473761       -4.3225647927        0.0235264755
 C          2.4137537800       -2.7658351547       -1.2293100058
 H          1.4701512986       -2.5860843070       -0.7073433324
 H          2.2316049051       -3.5357665655       -1.9846140225
 C          2.8197622089       -1.4838909150       -1.9683248333
 H          3.8175853040       -1.6060986448       -2.3961014946
 H          2.1101633568       -1.3340201777       -2.7874658408
 H          5.6878454222       -2.2578743637        1.2118376130
 H          4.7464243318       -1.0370923468        2.0788647861
 H          5.2570159489       -1.1995917764       -0.9186992470
 H          5.7803653985        0.0557941205        0.2207777935
 O          3.6636114704        1.2604036636        0.4677086664
 C          2.5561419426        2.0882763083        0.4060030085
 O          2.6210495297        3.0838303843        1.1568225766
 H         -0.4167895633        0.2579012402        0.3560047780
 C         -0.9131609558        1.0281654879        0.9211770681
 C         -0.6350763434        2.3608896582        0.6565648997
 C         -1.2623892895        3.3384387123        1.4207470040
 C         -2.1537362899        2.9833475167        2.4177666848
 C         -2.4273345095        1.6531806147        2.6787380264
 C         -1.7896069314        0.6655657694        1.9336096877
 N         -2.0018703945       -0.6835151761        2.2241019364
 S         -1.6915491100       -1.9486448098        1.1842550073
 O         -2.1911556681       -3.1021833165        1.9029772381
 O         -0.2969591527       -1.9804393914        0.8284804732
 C         -2.7347994169       -1.6634532058       -0.2329026187
 C         -2.2191419515       -1.2189446337       -1.4321102241
 C         -3.0903762155       -1.0087424943       -2.4916396129
 C         -4.4476166639       -1.2364795575       -2.3357933772
 C         -4.9495419006       -1.6827092443       -1.1217546706
 C         -4.0867643189       -1.8998317728       -0.0616174480
 H         -4.4316206961       -2.2673527508        0.8912087343
 H         -6.0056882315       -1.8626200529       -1.0012969242
 H         -5.1170311123       -1.0675237470       -3.1645112765
 H         -2.6925731777       -0.6630563281       -3.4321629348
 H         -1.1621981164       -1.0290136920       -1.5388618030
 H         -2.7283788350       -0.8873486916        2.8917846776
 H         -3.1113299822        1.3761540841        3.4660561500
 H         -2.6358697692        3.7505181364        3.0043737700
 H         -1.0305966543        4.3787518307        1.2460293904
 C          0.3386955431        2.7328467078       -0.4351536409
 H          0.7724129841        3.7092674702       -0.1635186670
 C         -0.3383711236        2.8981787351       -1.7891209984
 C         -1.6828331565        2.3244865161       -2.1074695758
 C         -1.5245377253        3.8041007173       -1.9418858623
 H         -1.5797487642        4.4324267371       -2.8179171899
 H         -1.9324462506        4.2527517756       -1.0495213440
 H         -2.1949361522        1.7724229217       -1.3342715074
 H         -1.8322040115        1.9230894883       -3.0973395709
 H          0.3841749749        2.9064946916       -2.5984178078
 O          0.6295604526        0.2410395044       -2.0482183913
