  62
        -98.94055696
 C          1.7914463794        0.8333768333       -0.3654809237
 C          3.1172494295        1.3195810301       -0.4967171357
 C          4.1236562246        0.6944269399        0.3683299174
 C          3.7472347005       -0.2385896642        1.2611010584
 C          4.6501911969       -0.9532412617        2.2293885005
 C          5.3731290851       -2.1670376358        1.6292953255
 C          6.4985144442       -1.8358067526        0.6481675620
 H          7.1835543264       -1.1237451989        1.1094587243
 H          7.0558439584       -2.7589404753        0.4768721600
 C          6.0202414224       -1.2903816218       -0.7048157625
 H          6.5553394761       -1.7964434000       -1.5115000692
 H          4.9594008020       -1.5174945954       -0.8339183813
 C          6.2319354861        0.2119185474       -0.8936603444
 H          7.3014608847        0.4333729078       -0.8990316290
 H          5.8248805068        0.4963807954       -1.8675464026
 C          5.5579441076        1.0831281520        0.1745187247
 H          5.5779872281        2.1213674324       -0.1661171636
 H          6.1027156434        1.0137294391        1.1159471104
 H          5.7999880753       -2.7343675049        2.4595797908
 H          4.6359018121       -2.8046867321        1.1359942461
 H          5.3836361527       -0.2536040263        2.6315341819
 H          4.0157683610       -1.2999682064        3.0480869437
 O          2.4549659663       -0.6319696465        1.4027713531
 C          1.4469609547       -0.1232201243        0.5906130106
 O          0.3226893274       -0.5962499892        0.8330768640
 O          3.4408464236        2.2387850299       -1.2951328335
 C          0.7321881736        1.4386639853       -1.2681325503
 C         -0.4974550652        1.8045019363       -0.4746198821
 C         -0.3456571669        2.5729624881        0.6774076225
 C         -1.4352292127        2.9136783981        1.4542807497
 C         -2.7100427807        2.5150251697        1.0896850234
 C         -2.8757249899        1.7654477033       -0.0650380789
 C         -1.7762746780        1.4143978544       -0.8402531001
 H         -1.9284182931        0.8122885708       -1.7224786294
 N         -4.1784966569        1.3767489731       -0.4472680290
 S         -4.9685010939        0.2387998556        0.4942382143
 O         -6.3181839374        0.1736767098       -0.0199850431
 O         -4.8277695374        0.6013176204        1.8805298260
 C         -4.1361610066       -1.3030197818        0.1556295479
 C         -4.7725105036       -2.2541201536       -0.6188932725
 C         -4.1042933509       -3.4289250764       -0.9223427468
 C         -2.8119919539       -3.6273688246       -0.4586864260
 C         -2.1867509490       -2.6608302708        0.3132053443
 C         -2.8519724169       -1.4862676904        0.6270039653
 H         -2.3694550744       -0.7238042536        1.2167912976
 H         -1.1763451934       -2.7895848600        0.6672547836
 H         -2.2878081611       -4.5386936674       -0.7008376674
 H         -4.5889167612       -4.1832188594       -1.5214089912
 H         -5.7755160168       -2.0549125032       -0.9604788603
 H         -4.2434821666        1.0983108073       -1.4169699689
 H         -3.5702480282        2.7574856299        1.6916286011
 H         -1.2941097578        3.4981605679        2.3512407245
 H          0.6482840862        2.8878549082        0.9665242231
 H          1.1894819459        2.3764122396       -1.6272346994
 C          0.4263148527        0.6050481957       -2.5053098860
 C          1.3824787909       -0.4378452247       -2.9996961231
 C          0.0676857989       -0.8476234432       -2.4109238020
 H         -0.6916624697       -1.2360923981       -3.0742429129
 H          0.0578786386       -1.2914367546       -1.4281329781
 H          1.5257180303       -0.5357524684       -4.0654536640
 H          2.2786967064       -0.6127246212       -2.4222328845
 H         -0.0816889135        1.1835910667       -3.2710681295
