  62
        -98.93918242
 C          2.3480631078        1.2715135160       -0.0255811828
 C          3.1344073433        0.5321113561        0.8849959403
 C          3.8449275648       -0.6468874850        0.3523497174
 C          3.6912747235       -0.9595012841       -0.9480997812
 C          4.2631913557       -2.1365586408       -1.6919378068
 C          3.5142591058       -3.4449404243       -1.3868015933
 C          3.1703906950       -3.6636173846        0.0847434136
 H          2.5729003882       -2.8216852348        0.4411191068
 H          2.5383801928       -4.5536835688        0.1489739605
 C          4.3666201271       -3.8699336121        1.0112725881
 H          4.9230038386       -4.7507456498        0.6832975593
 H          3.9716184686       -4.0791598401        2.0087918984
 C          5.3402609798       -2.6950534036        1.1202224484
 H          5.9769780971       -2.6343224141        0.2419689663
 H          5.9998468279       -2.8981322629        1.9689525466
 C          4.6863720936       -1.3441369250        1.3945944688
 H          4.0511966440       -1.4288540624        2.2838140437
 H          5.4711236546       -0.6283813677        1.6683574486
 H          2.5751688733       -3.4341174317       -1.9463306797
 H          4.1143162275       -4.2805489931       -1.7506103019
 H          4.1571843805       -1.9170276680       -2.7565175827
 H          5.3230235115       -2.2351480660       -1.4770942366
 O          2.9070185359       -0.2248959108       -1.7881632694
 C          2.2165476915        0.8947506090       -1.3618168679
 O          1.5422713796        1.4548708879       -2.2463042254
 H          0.2350071160        0.3373614499        1.2585716487
 C         -0.4261482473        1.0424571388        0.7682732440
 C          0.0983224879        2.2390962353        0.2935691339
 C         -0.7597308045        3.1332882066       -0.3314301128
 C         -2.0999824998        2.8233219979       -0.4895039878
 C         -2.6136373555        1.6266147129       -0.0256288068
 C         -1.7654083192        0.7275982898        0.6081766436
 N         -2.2801865231       -0.4928364162        1.0898066086
 S         -3.0339732672       -1.4919253803       -0.0355932666
 O         -2.9166079021       -2.8276544776        0.5091586128
 O         -2.5041918196       -1.2904769262       -1.3647341689
 C         -4.7398082449       -0.9869987515        0.0306411100
 C         -5.3978671529       -1.0730876730        1.2420573601
 C         -6.7265307558       -0.6855979297        1.3099957199
 C         -7.3712625363       -0.2240869029        0.1718497841
 C         -6.6973472214       -0.1469822827       -1.0374291459
 C         -5.3675991016       -0.5320323027       -1.1121996248
 H         -4.8001630546       -0.4841044099       -2.0281265211
 H         -7.1998012929        0.2118310604       -1.9212726694
 H         -8.4054114779        0.0771019009        0.2273083454
 H         -7.2540910100       -0.7440381316        2.2483345339
 H         -4.8606942338       -1.4414872267        2.0999201197
 H         -1.6023019163       -1.0274822578        1.6150618070
 H         -3.6550752733        1.3802866830       -0.1531633280
 H         -2.7536966130        3.5246740986       -0.9851030894
 H         -0.3775518548        4.0677434166       -0.7075640004
 C          1.5771262428        2.4803590086        0.4741189516
 H          1.7867940381        2.5352322137        1.5528352213
 C          2.0762985898        3.7475618173       -0.1855568536
 C          1.9388287041        5.0650364010        0.5156906499
 C          3.2874902520        4.4274585714        0.3764177897
 H          3.9983929912        4.8629492428       -0.3095614047
 H          3.7407746001        3.9877680263        1.2529389523
 H          1.4773786062        5.0652687035        1.4914814263
 H          1.7254379416        5.9432952608       -0.0744911667
 H          1.9708438957        3.7242454356       -1.2643238671
 O          3.2324238272        0.8317925757        2.1071091384
