  62
        -98.94365492
 C         -1.2668684801       -0.8664687474        0.2194389715
 C         -1.7187578561        0.2793342333        0.9215735837
 C         -2.7654886582        1.0734445580        0.2665281533
 C         -3.1620620989        0.7373273914       -0.9739996340
 C         -4.2512611710        1.4259984531       -1.7431152181
 C         -5.6149956428        0.7697624924       -1.4846689636
 C         -5.9287221422        0.5592063804       -0.0033983094
 H         -6.9257380555        0.1179320395        0.0581861177
 H         -5.2281757419       -0.1708053329        0.4085050200
 C         -5.8821006607        1.8388686634        0.8432096541
 H         -6.7560449663        1.8580192072        1.4976470811
 H         -5.9432920073        2.7139121196        0.1951671547
 C         -4.6499437719        1.9601842766        1.7417862843
 H         -4.8212240944        2.7794637178        2.4449734573
 H         -4.5326797231        1.0450166437        2.3276945419
 C         -3.3251282197        2.2453035304        1.0226774314
 H         -3.4404332422        3.1085626564        0.3634533094
 H         -2.5788402518        2.4945840105        1.7829946321
 H         -6.3884241009        1.3927733277       -1.9374849297
 H         -5.6293245919       -0.2038246503       -1.9801152576
 H         -4.0174317976        1.3549728842       -2.8068726645
 H         -4.2802129029        2.4763563795       -1.4589030743
 O         -2.6350588552       -0.3083194267       -1.6585947298
 C         -1.6760779075       -1.1364992154       -1.0872192868
 O         -1.2849314057       -2.0461629269       -1.8416898598
 O         -1.2623585404        0.6228546517        2.0454719249
 C         -0.2018851396       -1.7206248227        0.8819380748
 C          0.9770225149       -1.8969549540       -0.0422179764
 C          1.5883785286       -3.1144336174       -0.3095283674
 C          2.6871208637       -3.1729885912       -1.1501614264
 C          3.2130329036       -2.0275448716       -1.7187132730
 C          2.6054029627       -0.8039129627       -1.4592593762
 C          1.4972384880       -0.7520946087       -0.6317070084
 H          1.0103833370        0.1968551151       -0.4658672812
 N          3.0994825365        0.3873086466       -2.0111014079
 S          2.9938482117        1.8051496932       -1.1343705249
 O          1.6494999038        2.3258869775       -1.1727061886
 O          4.0133125017        2.6560914839       -1.7112589051
 C          3.4560759500        1.3533279891        0.5292565836
 C          2.5315621310        1.3834855992        1.5528081089
 C          2.9216593041        0.9778108168        2.8197778749
 C          4.2220776743        0.5531028431        3.0411936530
 C          5.1430656637        0.5380937584        2.0043747946
 C          4.7580241865        0.9388790781        0.7360168917
 H          5.4476025005        0.9503120154       -0.0922758408
 H          6.1554793632        0.2123909231        2.1803378057
 H          4.5183791874        0.2345168212        4.0281003947
 H          2.1990663418        0.9905167459        3.6203646229
 H          1.5232846600        1.7128383414        1.3539077054
 H          3.9746691153        0.3038999728       -2.5061291514
 H          4.0728999187       -2.0768292448       -2.3688287806
 H          3.1461421476       -4.1270319226       -1.3602893385
 H          1.1941299216       -4.0204747826        0.1199060637
 H          0.1426229095       -1.1031867671        1.7299686421
 C         -0.7129224031       -3.0227069842        1.4806440048
 C         -2.1631037770       -3.2091504021        1.8106535027
 C         -1.5408470001       -3.9965013183        0.6987137049
 H         -1.3719896317       -5.0522308210        0.8535315988
 H         -1.7869774879       -3.7359691544       -0.3183012166
 H         -2.4205548905       -3.7199149396        2.7265075515
 H         -2.8425118852       -2.4101923437        1.5497706744
 H         -0.0071969878       -3.4468021613        2.1881836868
