  62
        -98.94078103
 C         -1.1394456177       -1.3587892498        0.1240380659
 C         -1.5418445892       -0.3945245550        1.0779054044
 C         -2.4138853046        0.6889109403        0.5964451848
 C         -2.7257501591        0.7385012941       -0.7103120666
 C         -3.6555038066        1.7008028653       -1.3972775588
 C         -5.0795542849        1.1219895773       -1.4637650256
 C         -5.9537932258        1.4266804034       -0.2480488257
 H         -6.2112299888        2.4879581062       -0.2480558835
 H         -6.8832132074        0.8650600209       -0.3671377492
 C         -5.3366025408        1.0724316890        1.1074520236
 H         -6.1491874262        0.9807129873        1.8308613634
 H         -4.8485394800        0.0980053626        1.0457825041
 C         -4.3382531289        2.1251920823        1.6119277321
 H         -4.5987022206        2.4093776331        2.6336331086
 H         -4.4341969740        3.0268386197        1.0076947232
 C         -2.8714806001        1.6716801378        1.6390680460
 H         -2.2223683232        2.5521997445        1.5940461942
 H         -2.6620061366        1.1805743526        2.5944942752
 H         -4.9979172000        0.0402662873       -1.5970146850
 H         -5.5799927812        1.5222857347       -2.3477984452
 H         -3.2835605983        1.8220683592       -2.4167494674
 H         -3.6541212879        2.6670541272       -0.9017193193
 O         -2.2455689895       -0.1607229957       -1.6106253726
 C         -1.4413508808       -1.2216262483       -1.2309088318
 O         -1.0744854109       -1.9441809541       -2.1755476340
 O         -1.1961619652       -0.4444958612        2.2903688368
 C         -0.2841055793       -2.5233794843        0.5981370569
 C          1.1383871011       -2.2618020668        0.1718535101
 C          1.7621371577       -2.9180382570       -0.8804421152
 C          3.0507620578       -2.5735418457       -1.2542312679
 C          3.7429191396       -1.5786151836       -0.5874640984
 C          3.1251326803       -0.9172898187        0.4665525881
 C          1.8353390915       -1.2598425611        0.8382720659
 H          1.3489559027       -0.7366356622        1.6517937101
 N          3.8200797136        0.1141840012        1.1413925694
 S          4.0489194481        1.5195894983        0.2619231866
 O          4.8236076089        1.2095271999       -0.9114539036
 O          4.6273585414        2.4711280745        1.1821245599
 C          2.4116776244        2.0510815172       -0.2081254359
 C          1.7798929111        1.4219969575       -1.2626412708
 C          0.4942049363        1.8124257705       -1.5999415712
 C         -0.1332682808        2.8192055278       -0.8827471256
 C          0.5120384410        3.4354395029        0.1779846601
 C          1.7947375992        3.0446291675        0.5251153060
 H          2.3351355040        3.5000019568        1.3395435388
 H          0.0204377661        4.2182552944        0.7332543157
 H         -1.1304983827        3.1239892964       -1.1562929562
 H         -0.0142978867        1.3220320409       -2.4155612590
 H          2.2964724573        0.6480757261       -1.8074124242
 H          3.3968754184        0.3541278514        2.0279064408
 H          4.7391451496       -1.2884159200       -0.8787499969
 H          3.5226638746       -3.0882145488       -2.0775310143
 H          1.2329576648       -3.6863069560       -1.4192986377
 H         -0.3167118590       -2.4772312618        1.6956708744
 C         -0.8281454272       -3.8624345590        0.1519781231
 C         -0.3463338244       -5.1093629256        0.8294591174
 C         -1.7428669614       -4.6202955484        1.0650853297
 H         -2.5634028363       -5.1712802059        0.6304852568
 H         -1.9743931178       -4.1779431076        2.0231343849
 H         -0.2065211805       -5.9990776481        0.2349005109
 H          0.3721804060       -4.9966743737        1.6273017829
 H         -1.0388779939       -3.9094128286       -0.9090303750
