  62
        -98.93769238
 C         -1.5114558443       -0.0559751884       -0.7255504486
 C         -2.7927654063       -0.5670416040       -1.0497945994
 C         -3.8383176354       -0.3993850131       -0.0326263248
 C         -3.5323478841        0.1766477602        1.1436116027
 C         -4.4516934524        0.3665332081        2.3213679287
 C         -5.6488339363        1.3131930469        2.1092315781
 C         -6.9431801260        0.6094781438        1.6829589224
 H         -6.9028660321       -0.4291930334        2.0134577816
 H         -7.7826489355        1.0720001601        2.2060210160
 C         -7.2671965543        0.6579722038        0.1867590503
 H         -7.6689990004        1.6435535426       -0.0591236102
 H         -8.0526927323       -0.0751642742       -0.0089059682
 C         -6.0953979584        0.3926024998       -0.7584889743
 H         -6.4938693252        0.2621677592       -1.7665374278
 H         -5.4462209503        1.2705693890       -0.7940947494
 C         -5.2325709924       -0.8287990115       -0.3863909662
 H         -5.6831782982       -1.3829143813        0.4358175095
 H         -5.1438451511       -1.4980376879       -1.2444868763
 H         -5.3787529745        2.0853788418        1.3894676906
 H         -5.8301259790        1.8102997967        3.0635388464
 H         -4.8162348361       -0.6124743413        2.6412991667
 H         -3.8205385124        0.7627271674        3.1196613742
 O         -2.2830989611        0.6355689812        1.4258454704
 C         -1.2468990220        0.5426347631        0.5068310062
 O         -0.1751467829        1.0329514388        0.9076297538
 H          2.1045796479       -0.0586210127       -0.6091229959
 C          1.7534245745       -1.0715523266       -0.6902013066
 C          0.5148288161       -1.3321242743       -1.2537727148
 C          0.0838910918       -2.6539966490       -1.3420378460
 C          0.8775306344       -3.6854284419       -0.8795723381
 C          2.1094886886       -3.4191165542       -0.3060707589
 C          2.5448288610       -2.1042029051       -0.2048750610
 N          3.7960961013       -1.7951809038        0.3568342273
 S          3.8631704504       -0.6184256769        1.5587502338
 O          5.1073313852       -0.8951508442        2.2495768818
 O          2.6730830416       -0.6355021216        2.3755783858
 C          4.0382450204        0.9163107602        0.6755085143
 C          5.2012729416        1.1091984317       -0.0445366761
 C          5.3667934813        2.2928866457       -0.7447638830
 C          4.3716863922        3.2585710241       -0.7111068979
 C          3.2123148588        3.0493322791        0.0196584330
 C          3.0385098344        1.8674444115        0.7244001703
 H          2.1357663139        1.6601577933        1.2789626374
 H          2.4340362603        3.7959778398        0.0430832627
 H          4.4978507814        4.1798161705       -1.2581023618
 H          6.2665702084        2.4590066594       -1.3148615248
 H          5.9502502839        0.3350177740       -0.0368079791
 H          4.3323203686       -2.6053020061        0.6355400130
 H          2.7280994870       -4.2234150433        0.0633782307
 H          0.5339943076       -4.7060217031       -0.9587863986
 H         -0.8857005960       -2.8579899057       -1.7746692002
 C         -0.3965325576       -0.2331710757       -1.7445410426
 H         -0.8952999710       -0.5954157098       -2.6545166956
 C          0.3227351889        1.0604857769       -2.0604481456
 C          1.2389864538        1.1193106187       -3.2451358304
 C         -0.0704986522        1.8469958595       -3.2732528890
 H         -0.0645710963        2.9247081094       -3.2110514475
 H         -0.8620728455        1.4505140022       -3.8922839931
 H          1.3350793489        0.2259910444       -3.8434256752
 H          2.1482562341        1.6949520017       -3.1627743258
 H          0.6040906149        1.6209535504       -1.1780345187
 O         -3.0502328301       -1.1448288070       -2.1399077844
