  62
        -98.93643720
 C         -1.2421652944       -0.9850844445        0.4581531298
 C         -1.8714185845       -0.6664737938       -0.7674726064
 C         -2.7940600481        0.4856908606       -0.7506930422
 C         -2.9839593864        1.1682882138        0.3939828711
 C         -3.8108028807        2.4013570439        0.6950556388
 C         -4.8718311600        2.8914829692       -0.2866438151
 C         -6.0729345407        1.9602832523       -0.4472874140
 H         -6.6489872691        1.9729240385        0.4814359792
 H         -6.7108024872        2.3593417283       -1.2390196859
 C         -5.7408504361        0.5039887312       -0.7631649356
 H         -5.1888845032        0.0641002026        0.0699324512
 H         -6.6839672417       -0.0426908883       -0.8478162965
 C         -4.9556961100        0.2767621015       -2.0535910671
 H         -4.9290832289       -0.8007802641       -2.2369363930
 H         -5.4789510804        0.7444607958       -2.8899422078
 C         -3.5013568045        0.7789273297       -2.0422907076
 H         -2.9523741996        0.2405453162       -2.8208953748
 H         -3.4471076649        1.8388915218       -2.2804010452
 H         -4.4232798207        3.1045211137       -1.2526232774
 H         -5.2425578004        3.8425621573        0.1055257139
 H         -4.2822282542        2.2129584790        1.6648137360
 H         -3.0897931901        3.2107250836        0.8556743905
 O         -2.3434401768        0.8267616016        1.5504824162
 C         -1.4764363476       -0.2502299920        1.6188506422
 O         -0.9844581630       -0.4441453174        2.7467631854
 H          0.6785427766        0.1820464913       -0.4872311125
 C          1.3056982082       -0.6616135851       -0.7476631688
 C          0.9499212467       -1.9329041175       -0.3225708343
 C          1.7829755068       -2.9935480311       -0.6655214242
 C          2.9336016501       -2.7823229255       -1.4046205726
 C          3.2804214259       -1.5106494409       -1.8274536878
 C          2.4488019044       -0.4503077202       -1.5042079174
 N          2.8124104997        0.8622500937       -1.9064022685
 S          3.9172518503        1.5718176768       -0.8622973944
 O          4.0110096602        2.9590706370       -1.2563557898
 O          5.1360608057        0.8065539444       -0.9055422726
 C          3.1509441444        1.4299386134        0.7414006265
 C          2.2691585877        2.4128533599        1.1446406942
 C          1.5742037373        2.2446162591        2.3312994169
 C          1.7604758650        1.0952538706        3.0840073821
 C          2.6482999922        0.1173570058        2.6635284407
 C          3.3490867816        0.2803525002        1.4795283728
 H          4.0429931549       -0.4605778750        1.1163720748
 H          2.7824855619       -0.7778898756        3.2488523792
 H          1.1952453648        0.9514032807        3.9907142337
 H          0.8776445716        2.9995752332        2.6602332931
 H          2.1489033216        3.2904645208        0.5285889437
 H          2.0136025048        1.4766060027       -1.9892501454
 H          4.1802310676       -1.3213465105       -2.3892802349
 H          3.5694786758       -3.6177347244       -1.6544058399
 H          1.5285973105       -3.9910535843       -0.3450380598
 C         -0.2670366772       -2.1395800705        0.5494880489
 H          0.0772839511       -2.1576563705        1.5948432246
 C         -0.9682739974       -3.4519684489        0.2476147535
 C         -0.6400726240       -4.6925944509        1.0212043184
 C         -1.9458460328       -3.9934715850        1.2460004365
 H         -2.8527194338       -4.4542223171        0.8842109679
 H         -2.0755901321       -3.4355105262        2.1623658564
 H         -0.6506038434       -5.6400244755        0.5035145383
 H          0.1057022612       -4.6199139462        1.7986252135
 H         -1.2194493505       -3.5552627267       -0.8015537660
 O         -1.6642959772       -1.2968544098       -1.8372706140
