  62
        -98.93310857
 C         -2.4573585571       -1.0975884455       -0.0243900436
 C         -2.3100400586        0.2515333168       -0.4181996184
 C         -3.2965070581        1.2164482713        0.1138521159
 C         -4.2636567028        0.7762998245        0.9391115361
 C         -5.3888129163        1.5548268705        1.5678073298
 C         -6.5130441082        1.8837258615        0.5726150930
 C         -6.0396357482        2.3880654892       -0.7878634955
 H         -5.3917428715        1.6366949391       -1.2428074991
 H         -6.9194367685        2.4882060306       -1.4290146616
 C         -5.3202619938        3.7345751611       -0.7672179127
 H         -5.1305768852        4.0163679207       -1.8061358509
 H         -5.9823420074        4.4881511854       -0.3350842426
 C         -3.9872081680        3.7685218122       -0.0164871979
 H         -3.4783619978        4.6946235265       -0.2994887022
 H         -4.1410673212        3.8180387301        1.0580143671
 C         -3.0357058613        2.6267994475       -0.3594312395
 H         -2.9260805461        2.5665174107       -1.4482283173
 H         -2.0371320799        2.8807525170        0.0163616905
 H         -7.1711571648        2.6247422186        1.0295480608
 H         -7.0941557003        0.9733265668        0.4063823710
 H         -5.7995932100        0.9236843045        2.3590585299
 H         -5.0058689962        2.4587950756        2.0319083056
 O         -4.3651135635       -0.5356465632        1.2972720377
 C         -3.4851023959       -1.4908873610        0.8387336219
 O         -3.7158452189       -2.6436541399        1.2563658318
 H          0.4642946161       -0.3831658490       -0.6676185317
 C          0.7036554543       -1.1680591926        0.0346632907
 C         -0.2206174957       -2.1783200994        0.2592272657
 C          0.0892709973       -3.1664699040        1.1863989439
 C          1.2929701430       -3.1394882778        1.8687445169
 C          2.2093670065       -2.1271268213        1.6464813509
 C          1.9079051122       -1.1334433421        0.7241403845
 N          2.8135365038       -0.0698270617        0.5067837754
 S          4.3609717886       -0.4681857513       -0.0417194569
 O          4.2964870402       -1.0058800210       -1.3847451814
 O          5.0002955970       -1.3037126256        0.9419702689
 C          5.1284236378        1.1391171274       -0.0601914631
 C          5.2577146646        1.8222232805       -1.2537479524
 C          5.8402397702        3.0800840475       -1.2464044972
 C          6.2775900278        3.6309233627       -0.0515237914
 C          6.1400715960        2.9326928812        1.1391347494
 C          5.5600864592        1.6743865583        1.1381583602
 H          5.4410361812        1.0921864330        2.0368052729
 H          6.4833556965        3.3640820684        2.0656061928
 H          6.7308720212        4.6096523404       -0.0487120361
 H          5.9506038981        3.6240719845       -2.1707341556
 H          4.9107978191        1.3525474566       -2.1603128714
 H          2.4160425533        0.6048835908       -0.1356807340
 H          3.1536825970       -2.1038811010        2.1646314356
 H          1.5203613032       -3.9147843163        2.5849791515
 H         -0.6270308030       -3.9530795112        1.3769527896
 C         -1.5325704823       -2.2125543302       -0.4890930201
 H         -2.0435601398       -3.1460989783       -0.2180134506
 C         -1.3132729537       -2.2086655025       -1.9898523093
 C         -0.8271282559       -3.4600612493       -2.6540952142
 C         -2.2361282287       -2.9959088973       -2.8681699791
 H         -2.5056777175       -2.5869571639       -3.8303724927
 H         -3.0325887198       -3.5472451204       -2.3895107043
 H         -0.1241521539       -3.3713682690       -3.4682854862
 H         -0.6678279298       -4.3268681665       -2.0303244373
 H         -0.9527749775       -1.2633302968       -2.3728959893
 O         -1.4049347363        0.6715637769       -1.1899318812
