  62
        -98.94414209
 C         -1.7095017178       -1.4151370053        0.3720580964
 C         -1.7956260049       -0.1956814223        1.0947107950
 C         -3.0425980612        0.5662452289        0.9526518698
 C         -4.0354839412        0.0600619369        0.1993956050
 C         -5.3588593774        0.7256957671       -0.0421977472
 C         -5.3284408449        1.5933918457       -1.3077000164
 C         -4.1297277196        2.5391127552       -1.3767439006
 H         -3.2161062695        1.9480339080       -1.4744372837
 H         -4.2316393168        3.1268959349       -2.2914890108
 C         -3.9963204093        3.4833749505       -0.1738005143
 H         -4.9448599502        3.5397041973        0.3613015762
 H         -3.7719090176        4.4869619051       -0.5409314057
 C         -2.8808811579        3.1068520714        0.8032169188
 H         -1.9571587979        2.9380525494        0.2443892733
 H         -2.7146704366        3.9551564477        1.4726709011
 C         -3.1463362436        1.8766902873        1.6811945086
 H         -2.3794755429        1.8468164712        2.4611450397
 H         -4.1202919106        1.9731083538        2.1656419576
 H         -6.2540435153        2.1703067893       -1.3524051525
 H         -5.2963129712        0.9347719117       -2.1786877947
 H         -6.1152877593       -0.0516291135       -0.1638470802
 H         -5.6151171273        1.3342810720        0.8229933672
 O         -3.9255507949       -1.1148280569       -0.4665307742
 C         -2.7574068272       -1.8654254255       -0.4318992903
 O         -2.8064954030       -2.8828225594       -1.1504340043
 H          2.1268054491       -1.3160000696        0.7966756008
 C          1.8407866948       -1.4053500275       -0.2395668162
 C          0.5695464919       -1.8473710280       -0.5739790946
 C          0.2350859037       -1.9756658749       -1.9179334773
 C          1.1564674292       -1.6575156001       -2.8986638569
 C          2.4186419508       -1.2000568741       -2.5618132501
 C          2.7657838143       -1.0758510886       -1.2214033198
 N          4.0489109014       -0.6469576716       -0.8557201074
 S          4.3139412432        0.3377628667        0.4688348557
 O          5.6801524352        0.7831545532        0.3041159964
 O          4.0225620801       -0.3793013311        1.6837907208
 C          3.2073757043        1.7199867977        0.2628185789
 C          3.5949913835        2.7308817107       -0.5969595865
 C          2.7428663388        3.8025485847       -0.8033500662
 C          1.5186208894        3.8461986288       -0.1517825051
 C          1.1475131830        2.8267814039        0.7096946595
 C          1.9951520945        1.7505389343        0.9197463248
 H          1.7094080247        0.9507993522        1.5829895478
 H          0.1993493142        2.8423186987        1.2231301679
 H          0.8527198466        4.6797193098       -0.3121338647
 H          3.0330423956        4.5994093908       -1.4691504174
 H          4.5613345904        2.6679776734       -1.0706810211
 H          4.6441856196       -0.3889930567       -1.6288823999
 H          3.1340117789       -0.9494583985       -3.3301454112
 H          0.8871463158       -1.7617460093       -3.9389313385
 H         -0.7499630117       -2.3284947774       -2.1832863722
 C         -0.4130496915       -2.1919710641        0.5202559980
 H          0.0219885414       -1.8495689964        1.4698185759
 C         -0.5958035597       -3.6949550110        0.6010325122
 C          0.4724335770       -4.5188290979        1.2524528527
 C         -0.8510343139       -4.3336401455        1.9314404862
 H         -1.5314779226       -5.1705107732        1.9781124248
 H         -0.8935928203       -3.6883981269        2.7971231851
 H          1.3287478773       -4.0005493011        1.6583340946
 H          0.7040881414       -5.4856674517        0.8327520362
 H         -1.1029887978       -4.1147522159       -0.2575517307
 O         -0.8696279754        0.2309215641        1.8352209421
