  62
        -98.93944426
 C         -2.4184649800       -0.9330868347       -0.6438123039
 C         -3.6525141427       -0.8969762852        0.0586530693
 C         -4.5042344769        0.2755227663       -0.1726306434
 C         -4.0889501173        1.2277960553       -1.0272614378
 C         -4.8263852463        2.5016919830       -1.3187810514
 C         -4.3850054696        3.6280258023       -0.3737259614
 C         -4.3788815837        3.2295962945        1.1022137822
 H         -3.6105559256        2.4697390028        1.2641332033
 H         -4.0833106078        4.1108723075        1.6756286679
 C         -5.7247676653        2.7078224724        1.6246808426
 H         -5.9287318854        3.1723951498        2.5916818107
 H         -6.5260483501        3.0052834085        0.9472879639
 C         -5.7781442814        1.1938926506        1.8385010997
 H         -4.9217474248        0.8783514624        2.4400065547
 H         -6.6814850709        0.9627991884        2.4093010692
 C         -5.8123510239        0.3409291164        0.5640549754
 H         -6.6078121824        0.6953463566       -0.0946583741
 H         -6.0419963593       -0.6872795943        0.8585050628
 H         -3.3733535667        3.9347709835       -0.6490496944
 H         -5.0503798744        4.4809242839       -0.5193275291
 H         -4.6107141926        2.7965084965       -2.3470660609
 H         -5.8957044979        2.3266060333       -1.2178737928
 O         -2.9116069145        1.1535141283       -1.6947040233
 C         -2.0417464677        0.0872789160       -1.5169169380
 O         -0.9993577697        0.1844432998       -2.1954560189
 O         -4.0265092219       -1.8120000234        0.8399425861
 C         -1.5263620825       -2.1381731107       -0.3932492180
 C         -0.4029007902       -1.7809493912        0.5514009721
 C         -0.4086295367       -2.2449088501        1.8618273827
 C          0.6173263370       -1.9160674629        2.7305646995
 C          1.6648155104       -1.1139758229        2.3148485365
 C          1.6763252625       -0.6393816279        1.0092993063
 C          0.6528226763       -0.9814709914        0.1362545622
 H          0.6571675937       -0.5957549866       -0.8724569176
 N          2.7169814244        0.2118549605        0.5770111490
 S          4.2944147435       -0.3672356000        0.7544903289
 O          4.4457982702       -1.6328788444        0.0688454664
 O          4.6246585013       -0.3699429299        2.1570192760
 C          5.2169752289        0.9059319138       -0.0820652993
 C          5.4830037399        2.0813383076        0.5938380298
 C          6.1799806359        3.0854301648       -0.0588021021
 C          6.5962747792        2.8986679211       -1.3686905721
 C          6.3222389437        1.7130440930       -2.0335156240
 C          5.6240348105        0.7052856673       -1.3868853196
 H          5.3959030890       -0.2352817310       -1.8624839558
 H          6.6491551107        1.5696274462       -3.0508384039
 H          7.1398595016        3.6810898961       -1.8743320222
 H          6.3971240699        4.0081518228        0.4547139719
 H          5.1476166488        2.1781901919        1.6130706075
 H          2.5726431873        0.4912732292       -0.3853402992
 H          2.4735222902       -0.8575642496        2.9794184415
 H          0.6008469096       -2.2862433602        3.7447195307
 H         -1.2313626694       -2.8589878902        2.1992695376
 H         -2.1704083075       -2.8660522076        0.1183527489
 C         -1.0061133764       -2.7742192057       -1.6671222802
 C         -0.4980176194       -4.1828865720       -1.6187395316
 C         -1.7909633279       -3.8754388988       -2.3114776193
 H         -1.8238385725       -3.9207780209       -3.3896757711
 H         -2.7105432211       -4.1803182483       -1.8335983030
 H          0.3611377908       -4.4414971291       -2.2185994286
 H         -0.5399313676       -4.6960812716       -0.6697858275
 H         -0.5002362719       -2.0796886515       -2.3248003332
