  62
        -98.94163256
 C         -2.7958404236       -0.6604376390       -0.2496070739
 C         -2.2089561771        0.2730860506       -1.1386754118
 C         -2.5199747761        1.6880096529       -0.8852640173
 C         -3.3511352085        2.0182233539        0.1184706450
 C         -3.7145731230        3.4195886488        0.5128318026
 C         -2.7659812948        3.9587261595        1.5922685314
 C         -1.2836945965        3.7643843384        1.2705554544
 H         -0.7121864869        4.2202243735        2.0823919507
 H         -1.0446698991        2.6975351970        1.2788917707
 C         -0.8373837260        4.3674554184       -0.0683840594
 H          0.1084169594        4.8909589021        0.0854154146
 H         -1.5678691761        5.1041837417       -0.4061140638
 C         -0.5995736003        3.3390138801       -1.1759371938
 H         -0.0679591682        3.8370993699       -1.9916593362
 H          0.0502076420        2.5442023930       -0.7972799602
 C         -1.8627573687        2.7052911222       -1.7745859552
 H         -2.5699664449        3.4891532992       -2.0539563197
 H         -1.5692885961        2.1675630381       -2.6807675390
 H         -2.9715467508        5.0216604753        1.7320466378
 H         -2.9808844302        3.4440008853        2.5316443861
 H         -4.7317780556        3.4112739400        0.9082367582
 H         -3.6816554361        4.0590503200       -0.3670005874
 O         -3.9323706389        1.0941377163        0.9250664300
 C         -3.6457137546       -0.2511798788        0.7835350932
 O         -4.2140922732       -0.9828860818        1.6190972057
 O         -1.4605578230       -0.0314642287       -2.1068839646
 C         -2.5120546463       -2.1564637556       -0.2974552580
 C         -1.1781201329       -2.4158523800        0.3615684194
 C         -1.0933648432       -3.0809078974        1.5790865530
 C          0.1266055839       -3.2382706945        2.2146089114
 C          1.2842935118       -2.7240713397        1.6575625895
 C          1.2065779442       -2.0569408019        0.4432744804
 C         -0.0106199517       -1.9235665650       -0.2045023991
 H         -0.0604449967       -1.3854692498       -1.1396007377
 N          2.3786790960       -1.4770337112       -0.1116834233
 S          2.8052422006       -0.0356691572        0.6719188366
 O          2.9470840388       -0.3123996431        2.0790718343
 O          1.8822836787        1.0220935618        0.3188031991
 C          4.4056668354        0.2723309888       -0.0489752910
 C          4.5478624747        1.2403664230       -1.0234242811
 C          5.7958201621        1.4370386009       -1.5946051940
 C          6.8714932893        0.6634298280       -1.1863554430
 C          6.7116644374       -0.3066633425       -0.2077001147
 C          5.4676043207       -0.5070351881        0.3679186237
 H          5.2963068610       -1.2433986486        1.1352506209
 H          7.5507418327       -0.9059513500        0.1068713886
 H          7.8408190700        0.8182172353       -1.6332976946
 H          5.9227776139        2.1909371094       -2.3548558182
 H          3.6842826853        1.8210574324       -1.3065889142
 H          2.2224570443       -1.2398462382       -1.0848583981
 H          2.2338704900       -2.8071341097        2.1596646923
 H          0.1739804629       -3.7551929792        3.1612172744
 H         -1.9977039246       -3.4525986988        2.0394204978
 H         -3.2894978218       -2.6271080156        0.3187879886
 C         -2.5821372416       -2.7466205145       -1.6913860410
 C         -2.7822641860       -4.2237628087       -1.8410216976
 C         -3.8887562614       -3.2773337443       -2.1957106041
 H         -4.1342297790       -3.1336985721       -3.2371546893
 H         -4.7410587281       -3.2169381153       -1.5344193603
 H         -2.2665489931       -4.7345229578       -2.6395135938
 H         -2.8854510775       -4.8076268593       -0.9388736523
 H         -1.9416956404       -2.2482088019       -2.4063103710
