  62
        -98.93431356
 C         -2.2631042186       -0.4207466040        0.2524438077
 C         -3.5410201508       -0.8357307144        0.6943167904
 C         -4.6366825868        0.1334557669        0.5301702838
 C         -4.3745120108        1.3383716334       -0.0047860188
 C         -5.3216135896        2.4912799113       -0.2269947078
 C         -6.7142314104        2.1678595726       -0.7858886490
 C         -6.7662496608        0.9745139876       -1.7509763945
 H         -7.2864332034        1.2773258287       -2.6616500523
 H         -5.7550149728        0.6797977297       -2.0369754069
 C         -7.5047068093       -0.2328243213       -1.1680304440
 H         -7.8260136617       -0.8776943798       -1.9894482856
 H         -8.4040159130        0.1198310264       -0.6584370506
 C         -6.6911209919       -1.0976544600       -0.2060877648
 H         -7.3615011629       -1.8466690045        0.2221134652
 H         -5.9175852622       -1.6383956913       -0.7580763728
 C         -6.0008762147       -0.3417153394        0.9409872661
 H         -6.6196201964        0.4751711870        1.3039109030
 H         -5.8396031859       -1.0484913752        1.7594250831
 H         -7.0633928054        3.0658239024       -1.2984127330
 H         -7.4045451391        1.9884406350        0.0371205402
 H         -5.4317513094        3.0274041976        0.7201439570
 H         -4.7967634474        3.1590858013       -0.9143630488
 O         -3.1225206049        1.7006205062       -0.4083440817
 C         -2.0418377237        0.8399337117       -0.2981622247
 O         -0.9657828641        1.3105194090       -0.7164299763
 H          1.5885467523       -1.0623533890       -0.2291304461
 C          1.3173558102       -0.6648029221        0.7332749910
 C          0.0103808752       -0.7434384569        1.1867386839
 C         -0.2954513407       -0.2201090018        2.4409599504
 C          0.6781168949        0.3877177185        3.2081918566
 C          1.9759315425        0.4908642323        2.7386378172
 C          2.2960681974       -0.0405224448        1.4955116955
 N          3.6242343486        0.0092494135        1.0276245383
 S          3.9571787235        0.4288386283       -0.5739284012
 O          3.5342613499        1.7873658034       -0.8377125113
 O          3.4494136228       -0.5905625658       -1.4546275576
 C          5.7388370647        0.3439343197       -0.5295157791
 C          6.3359060354       -0.9018480846       -0.5670614010
 C          7.7177944938       -0.9848063565       -0.5086565714
 C          8.4760076931        0.1728589296       -0.4134450124
 C          7.8630248860        1.4160482533       -0.3780060800
 C          6.4807963608        1.5056296195       -0.4350742523
 H          5.9612955964        2.4503756116       -0.4195143729
 H          8.4548857893        2.3143694043       -0.3068156066
 H          9.5515684667        0.1057668522       -0.3690802409
 H          8.1981455203       -1.9495061544       -0.5382480595
 H          5.7063631903       -1.7722555982       -0.6498774348
 H          4.2098537416        0.5693129565        1.6346763994
 H          2.7350717546        0.9779948994        3.3322465775
 H          0.4247988778        0.7942194609        4.1759685374
 H         -1.3134431318       -0.2891090407        2.8004652004
 C         -1.0935971065       -1.3793964602        0.3797344324
 H         -1.4814922975       -2.2411541159        0.9436742216
 C         -0.6516893606       -1.8540652089       -0.9881894082
 C          0.0086398503       -3.1899865580       -1.1454840760
 C         -1.3897682677       -2.9821375774       -1.6419615447
 H         -1.5603827803       -2.9376673788       -2.7072515924
 H         -2.2016012781       -3.4288763640       -1.0865902431
 H          0.8052179610       -3.2845005041       -1.8681052848
 H          0.1468036907       -3.7846930321       -0.2552641026
 H         -0.3148196985       -1.0414214636       -1.6240742975
 O         -3.7556110538       -1.9618330670        1.2173083839
