  62
        -98.93779451
 C         -2.3342984899       -1.2827082411        0.2929452497
 C         -2.4990776702       -0.3427246112       -0.7491159303
 C         -3.1816598206        0.9242414886       -0.4105104504
 C         -3.5968882007        1.1281157385        0.8526702496
 C         -4.2744358211        2.3376906183        1.4410312295
 C         -3.3076213915        3.5077688686        1.6747922696
 C         -2.3710425515        3.8079387389        0.5077886496
 H         -1.6916687217        4.6045159091        0.8233678596
 H         -1.7542153612        2.9300984590        0.3025958497
 C         -3.0596176215        4.2636139386       -0.7769924604
 H         -3.6621718818        5.1498424184       -0.5658327905
 H         -2.2714712516        4.5560525088       -1.4759580604
 C         -3.9431074112        3.2236011183       -1.4711719405
 H         -4.1277498612        3.5818978983       -2.4880796905
 H         -4.9147275512        3.1431699681       -0.9912277105
 C         -3.3082670208        1.8433076285       -1.6019998704
 H         -3.8635154005        1.2711436983       -2.3550790804
 H         -2.2965650908        1.9524017888       -2.0116062903
 H         -3.8949136118        4.3971982284        1.9100323795
 H         -2.6894445215        3.2699287888        2.5439612996
 H         -5.1060920112        2.6451962480        0.8142616595
 H         -4.6812474011        2.0262060382        2.4057451095
 O         -3.4101655605        0.1960904386        1.8304407296
 C         -2.7794563201       -1.0043538712        1.5890151997
 O         -2.6822347500       -1.7432363212        2.5895040597
 H         -0.0676453498       -1.1927077505       -1.5530344801
 C          0.5055505502       -1.6309206403       -0.7491559601
 C         -0.1370236196       -2.4178044405        0.1963216199
 C          0.6160682905       -2.9537055002        1.2342906300
 C          1.9743508804       -2.7023918198        1.3238085501
 C          2.6044897902       -1.8955354997        0.3924650601
 C          1.8576432001       -1.3518991099       -0.6433436000
 N          2.4824889199       -0.4643411997       -1.5576950399
 S          2.6774909094        1.0791740903       -0.8996782500
 O          1.6054704193        1.4019228500        0.0167771000
 O          2.8475876892        1.9693877004       -2.0276720400
 C          4.2149146394        0.9442081008       -0.0137500599
 C          5.3812847395        0.8145137512       -0.7424013198
 C          6.5827267895        0.6869636015       -0.0638029597
 C          6.5967424094        0.6908473016        1.3232704403
 C          5.4171050793        0.8242112512        2.0398930802
 C          4.2117853893        0.9522127409        1.3670943601
 H          3.2687339292        1.0538100906        1.8803316101
 H          5.4292726892        0.8268455413        3.1180025102
 H          7.5326501194        0.5897915019        1.8497440204
 H          7.5022742796        0.5843237918       -0.6169884196
 H          5.3229211996        0.8229020611       -1.8179747698
 H          1.9493196300       -0.3690945099       -2.4127818700
 H          3.6587614402       -1.6824901993        0.4626053302
 H          2.5457350405       -3.1282909796        2.1342403701
 H          0.1229559506       -3.5523626904        1.9863926000
 C         -1.6310563395       -2.6230111409        0.1251617498
 H         -1.9293750294       -3.2234134310        0.9950418298
 C         -2.0350237592       -3.3671834211       -1.1318448602
 C         -1.8312008488       -4.8500343910       -1.1924861601
 C         -3.2162507089       -4.2870991414       -1.0887005902
 H         -3.8621760789       -4.3351530117       -1.9524224003
 H         -3.7384236690       -4.3851160016       -0.1478868503
 H         -1.5235017686       -5.2886421210       -2.1291813801
 H         -1.4152557587       -5.3335478509       -0.3216251201
 H         -1.8831274693       -2.7979637611       -2.0390872002
 O         -2.1026283900       -0.5179339311       -1.9350879703
