  62
        -98.93800607
 C          2.4241674908        0.4160236944        0.4706469479
 C          3.2208218344        0.3657200015       -0.7004153187
 C          4.3047564610       -0.6289938033       -0.6873766612
 C          4.4574933873       -1.4505217336        0.3655936182
 C          5.4937270948       -2.5324249313        0.5055471346
 C          6.8536917854       -2.0324180067        1.0117097389
 C          7.6682266679       -1.2255639641       -0.0002806481
 H          8.6769563544       -1.1275942119        0.4059194975
 H          7.7458909248       -1.7863591038       -0.9322010340
 C          7.1133472851        0.1769568195       -0.2859356819
 H          6.4122533972        0.4587280028        0.5032316131
 H          7.9291990373        0.9030368523       -0.2625289503
 C          6.4180409068        0.3199378997       -1.6399227828
 H          7.1441170351        0.1698355646       -2.4419683791
 H          6.0326433882        1.3395060795       -1.7214651236
 C          5.2468512656       -0.6478123255       -1.8533944858
 H          4.6900247198       -0.3227664086       -2.7355507262
 H          5.6195016584       -1.6570777624       -2.0262156740
 H          6.6927703393       -1.4331180610        1.9109214999
 H          7.4374097867       -2.9103286446        1.2980642390
 H          5.0988050604       -3.2481307731        1.2297953065
 H          5.6243317795       -3.0411384891       -0.4499525506
 O          3.6430080120       -1.3998313206        1.4538688189
 C          2.6316563018       -0.4596369542        1.5399812996
 O          1.9887334626       -0.4984877125        2.6094696647
 O          3.0545142609        1.0949857086       -1.7100713932
 C          1.2844297917        1.4041180232        0.6590915572
 C         -0.0002123673        0.8399203610        0.1093512010
 C         -0.0899960839        0.3944221409       -1.2059810665
 C         -1.2794586420       -0.1172371090       -1.6911871004
 C         -2.3971684011       -0.2028342593       -0.8790056922
 C         -2.3171191410        0.2335270997        0.4361337102
 C         -1.1228958034        0.7541723006        0.9190320929
 H         -1.0612921083        1.0830441277        1.9481026130
 N         -3.4424432343        0.1302881792        1.2702723688
 S         -4.9086935664        0.7301403580        0.7148365345
 O         -4.7119809969        1.8159917158       -0.2170635489
 O         -5.6667338141        1.0352825883        1.9083029693
 C         -5.6581609195       -0.6581659416       -0.1094608891
 C         -5.8207299341       -1.8295613582        0.6039784384
 C         -6.4130149604       -2.9157726039       -0.0200042154
 C         -6.8329698783       -2.8119900149       -1.3379075249
 C         -6.6656274804       -1.6278647992       -2.0393309764
 C         -6.0729113803       -0.5376931420       -1.4212634375
 H         -5.9176613190        0.4011180795       -1.9287920633
 H         -6.9933157832       -1.5491542332       -3.0634894600
 H         -7.2937228551       -3.6591954294       -1.8209381150
 H         -6.5448050860       -3.8384204442        0.5219603951
 H         -5.4842828444       -1.8686379951        1.6266441372
 H         -3.2729908800        0.4153870557        2.2239383067
 H         -3.3246849030       -0.6038203327       -1.2537758417
 H         -1.3371616353       -0.4568126536       -2.7142482602
 H          0.7809174708        0.4589549688       -1.8404385829
 H          1.1635105245        1.4941135386        1.7505663722
 C          1.6065652604        2.7953433764        0.1297140849
 C          0.9246713958        3.4256033925       -1.0433334068
 C          0.6310003912        3.9158944954        0.3405286265
 H          1.0056156620        4.8818466459        0.6438227002
 H         -0.3312921637        3.6637106479        0.7622297413
 H          1.5254443848        4.0386810068       -1.6975505313
 H          0.1580088051        2.8664409903       -1.5556489688
 H          2.6560606393        3.0404113678        0.2576221120
