  62
        -98.93738344
 C          2.2836812872        1.3514766397       -0.0709011055
 C          3.0824667459        0.6664096930        0.8824837438
 C          3.8172949099       -0.5095499146        0.4026998510
 C          3.7173875653       -0.8703413018       -0.8888052590
 C          4.4267481726       -2.0144591079       -1.5630446235
 C          4.0351351625       -3.4271114510       -1.0877596305
 C          4.9407349419       -3.9977084408        0.0108409214
 H          5.1104452703       -5.0572431706       -0.1910696512
 H          5.9134065916       -3.5077642793       -0.0472114313
 C          4.4018213539       -3.8970548445        1.4409857158
 H          3.6476584651       -4.6726331537        1.5927588359
 H          5.2284674236       -4.1033262463        2.1242025346
 C          3.7649211378       -2.5608650691        1.8242221700
 H          3.6122895984       -2.5539004096        2.9052732845
 H          2.7717401876       -2.4841643996        1.3736220076
 C          4.5779591084       -1.3177018521        1.4131326604
 H          4.7316206523       -0.6705475796        2.2787825746
 H          5.5514626226       -1.6063195951        1.0200382192
 H          2.9937619946       -3.4256982050       -0.7648740431
 H          4.1007066043       -4.0824957686       -1.9578686878
 H          4.1906841795       -1.9178015978       -2.6247929136
 H          5.5041796708       -1.8780559783       -1.4458397164
 O          2.9544515617       -0.1788377570       -1.7766533045
 C          2.2007002960        0.9207334562       -1.3946306333
 O          1.5322344147        1.4061501508       -2.3311898491
 O          3.1836337935        1.0319063522        2.0835573188
 C          1.4830973103        2.5389786924        0.4424996234
 C          0.0683962173        2.0934550523        0.7254746721
 C         -0.3920732500        1.9623169131        2.0305334586
 C         -1.6660971005        1.4849297143        2.2846274806
 C         -2.5007097711        1.1162022387        1.2444924735
 C         -2.0451876174        1.2352287426       -0.0616208578
 C         -0.7789696647        1.7375467107       -0.3147554275
 H         -0.4269293024        1.8059563963       -1.3335701800
 N         -2.8742445124        0.8107768748       -1.1263087680
 S         -3.1225331803       -0.8567993809       -1.1696393679
 O         -2.0042322461       -1.5723639371       -0.5950163763
 O         -3.4490796248       -1.1677985964       -2.5444353077
 C         -4.5739900228       -1.0837685914       -0.1633086398
 C         -5.7499740620       -0.4876476440       -0.5757143601
 C         -6.8888577554       -0.6505751520        0.1966128245
 C         -6.8333394809       -1.4043312719        1.3597965916
 C         -5.6457754062       -1.9988498998        1.7581968165
 C         -4.5022591578       -1.8385953116        0.9908618441
 H         -3.5549114921       -2.2760909202        1.2626770557
 H         -5.6041042442       -2.5845231174        2.6624600139
 H         -7.7209576559       -1.5295392141        1.9595769464
 H         -7.8141667840       -0.1901987437       -0.1099631121
 H         -5.7485295341        0.0841691733       -1.4885507448
 H         -2.5161687152        1.1036649290       -2.0260684445
 H         -3.4897555678        0.7318802736        1.4341858852
 H         -2.0095364353        1.3901225022        3.3033665423
 H          0.2674582540        2.2156572969        2.8477837057
 H          1.9491060087        2.8052176336        1.4005568969
 C          1.5300429373        3.7491929223       -0.4671134507
 C          1.1976579183        5.0951495813        0.1015778735
 C          2.6111605865        4.7680740483       -0.2733386978
 H          3.0377242517        5.2365099170       -1.1475299593
 H          3.3234578341        4.5958924258        0.5202849005
 H          0.6503541261        5.7924132772       -0.5137788317
 H          0.9516504772        5.1461208579        1.1513050029
 H          1.2249130519        3.5412249526       -1.4841709332
