  62
        -98.93467952
 C         -1.6414041736       -1.0266893020        0.1592642390
 C         -2.2292961503       -0.2666493727        1.2025717640
 C         -3.0355305736        0.8903237859        0.7949748147
 C         -3.1237901867        1.1981835684       -0.5117144847
 C         -3.9586103421        2.3098132393       -1.0768226949
 C         -5.3670553711        1.8147988476       -1.4353193161
 C         -6.0468372538        1.0201112924       -0.3201570511
 H         -5.4995175733        0.0881828260       -0.1608651011
 H         -7.0438198510        0.7496409890       -0.6747642628
 C         -6.1657919723        1.7708771067        1.0136024837
 H         -7.1732509265        1.6251215258        1.4091445148
 H         -6.0346473302        2.8411639843        0.8499380963
 C         -5.1912576265        1.3009192710        2.0952638714
 H         -5.2560408517        0.2147763339        2.1998676822
 H         -5.5024037416        1.7395028961        3.0472671989
 C         -3.7204054973        1.6774158403        1.8766766993
 H         -3.1794350342        1.4531617291        2.8008106389
 H         -3.6406414934        2.7493679142        1.6843745791
 H         -5.2947325514        1.1731219092       -2.3164197773
 H         -5.9812635397        2.6792053113       -1.6940400821
 H         -4.0208104121        3.1181287320       -0.3507447924
 H         -3.4736407596        2.6803818777       -1.9813122851
 O         -2.4885654328        0.4923252023       -1.4777649159
 C         -1.7455757799       -0.6454342267       -1.1804373789
 O         -1.2462528305       -1.1869656889       -2.1794720194
 H          0.9768276265       -1.0440953500        1.9949224415
 C          1.4049741564       -1.3817536510        1.0595110708
 C          0.5994010212       -2.0772785956        0.1613643950
 C          1.1644875862       -2.4703910103       -1.0460556345
 C          2.4941344881       -2.1987569142       -1.3234386343
 C          3.2907560039       -1.5205399761       -0.4201836988
 C          2.7320655732       -1.0972785110        0.7788486483
 N          3.5168546129       -0.3763715232        1.6959027066
 S          4.4920419637        0.8405992536        1.0921710643
 O          5.7268489926        0.2743370841        0.6096224406
 O          4.6186056526        1.7959132678        2.1703363322
 C          3.5879108353        1.5535397368       -0.2725713278
 C          4.1663592988        1.6012872588       -1.5244452270
 C          3.4475637137        2.1473765078       -2.5756156472
 C          2.1665897246        2.6299483311       -2.3584692153
 C          1.5997656043        2.5774215369       -1.0942294758
 C          2.3150958037        2.0354369210       -0.0391355531
 H          1.8967396288        1.9853240940        0.9539065002
 H          0.6009075752        2.9489443026       -0.9275124236
 H          1.6032906539        3.0487815821       -3.1773134283
 H          3.8853802444        2.1910595605       -3.5597976857
 H          5.1626207259        1.2092927718       -1.6500776919
 H          3.0129525637       -0.0704954897        2.5153898670
 H          4.3283892701       -1.3110743804       -0.6234109528
 H          2.9136391123       -2.5184586632       -2.2651139697
 H          0.5667226658       -2.9603747535       -1.7927196380
 C         -0.8416805688       -2.2588455493        0.5673654892
 H         -0.8544495714       -2.2176178273        1.6679746342
 C         -1.5668003240       -3.5529272547        0.2216611037
 C         -1.7630304000       -4.1210448132       -1.1506050381
 C         -0.8694884504       -4.8203847593       -0.1712685179
 H         -1.2148993280       -5.7471462379        0.2624246912
 H          0.1965977861       -4.7807582206       -0.3297057439
 H         -1.3397787934       -3.5980247328       -1.9913519205
 H         -2.7250458330       -4.5641419005       -1.3679191996
 H         -2.4208799714       -3.6727535269        0.8847855296
 O         -2.0875281695       -0.5461989497        2.4250969243
