  62
        -98.93690979
 C          1.4456413316        1.5087865630        0.1489988269
 C          2.5794746179        1.0713795929        0.8726220299
 C          3.3187120092       -0.0878057611        0.3336939287
 C          2.8477050713       -0.6940180440       -0.7717886572
 C          3.3981682794       -1.9099353196       -1.4690625893
 C          3.0868633338       -3.2212967047       -0.7273381864
 C          3.2419707259       -3.1600118983        0.7900845506
 H          2.6175503159       -2.3554044930        1.1835695808
 H          2.8592210326       -4.0975474083        1.2025090733
 C          4.6735169781       -2.9810196836        1.2893135637
 H          4.6457387967       -3.0179072452        2.3815525937
 H          5.2802558799       -3.8216832471        0.9450229427
 C          5.3649388885       -1.6819036549        0.8731799612
 H          5.6765698452       -1.7221738875       -0.1670293168
 H          6.2790330526       -1.5948137407        1.4679143354
 C          4.5547362932       -0.4160521399        1.1361186139
 H          5.2188452829        0.4500680477        1.0236574782
 H          4.2429793504       -0.4029966033        2.1869290863
 H          3.7299262807       -4.0064992544       -1.1282327360
 H          2.0509105516       -3.4963049050       -0.9390077323
 H          2.9283816245       -1.9462449432       -2.4542533461
 H          4.4679381027       -1.7958327327       -1.6192240629
 O          1.7201346727       -0.2702132671       -1.4080730838
 C          0.9946738822        0.8316890877       -0.9859722181
 O          0.0010849115        1.0845355567       -1.6879452691
 O          2.9616159574        1.6190193514        1.9431197454
 C          0.6604493138        2.6863367825        0.6990222039
 C         -0.8098071952        2.3492225016        0.7032241122
 C         -1.7872485383        3.1216352258        0.0918910238
 C         -3.1116721963        2.7175282403        0.1067659589
 C         -3.4893149682        1.5389787668        0.7221286739
 C         -2.5179818603        0.7580472657        1.3357307094
 C         -1.1970543393        1.1728404146        1.3347093091
 H         -0.4423066376        0.5588298658        1.8121384919
 N         -2.8841979240       -0.4607752205        1.9441267365
 S         -3.6649687425       -1.5765135594        0.9648675851
 O         -5.0287639484       -1.1536840191        0.7687993691
 O         -3.4849774520       -2.8489782093        1.6286632437
 C         -2.7861624846       -1.5525949890       -0.5847283215
 C         -3.2788228935       -0.8112333488       -1.6386056280
 C         -2.5548811358       -0.7630684161       -2.8181867392
 C         -1.3587333165       -1.4532525933       -2.9232771843
 C         -0.8801177920       -2.1972689705       -1.8570654720
 C         -1.5937735013       -2.2427706998       -0.6718051653
 H         -1.2522505651       -2.8109913152        0.1797417395
 H          0.0552841726       -2.7270018479       -1.9434258521
 H         -0.7898120285       -1.4050172576       -3.8380744662
 H         -2.9188865177       -0.1783860203       -3.6473486189
 H         -4.2150662527       -0.2913649785       -1.5188565159
 H         -2.1142293001       -0.9119850266        2.4176274125
 H         -4.5131944746        1.2015744399        0.7274845344
 H         -3.8599773896        3.3262906836       -0.3775308509
 H         -1.5117450079        4.0286193915       -0.4200390665
 H          0.9930053029        2.7711498816        1.7477325833
 C          0.9769031222        4.0190837647        0.0378846574
 C          2.2964467846        4.2554339075       -0.6323910488
 C          1.0446197081        4.1752891441       -1.4507720347
 H          0.6618213430        5.0857950709       -1.8882300256
 H          0.8750086808        3.2957691273       -2.0512704018
 H          2.7706541990        5.2171414499       -0.5049327224
 H          2.9914420992        3.4294585916       -0.6770187122
 H          0.5701291395        4.8556667013        0.5978516928
