  62
        -98.93357861
 C         -2.2326193137       -0.8144847779        0.6036413959
 C         -3.3732852628       -0.9299156034       -0.2252827961
 C         -4.4849250116        0.0038173954        0.0444211429
 C         -4.3593733150        0.9304444677        1.0112610303
 C         -5.3228248063        1.9807496281        1.5243195542
 C         -6.5885008712        2.3294509596        0.7454362579
 C         -6.3442859283        3.0344869666       -0.5885522293
 H         -7.3024791818        3.1342854864       -1.1029989334
 H         -5.9693991231        4.0407616142       -0.3850267553
 C         -5.3471910739        2.3530292834       -1.5224172029
 H         -5.2593593234        2.9672321844       -2.4227875023
 H         -4.3612617346        2.3293295072       -1.0531782254
 C         -5.7227417421        0.9388878309       -1.9597653685
 H         -5.0141440658        0.6352897714       -2.7349171726
 H         -6.7209417347        0.9435724227       -2.4018136782
 C         -5.6822882210       -0.1284345513       -0.8531912186
 H         -6.5993565809       -0.1284275200       -0.2694246608
 H         -5.5983028572       -1.1074649317       -1.3334492826
 H         -7.1988039759        1.4425721772        0.6031766246
 H         -7.1639667202        3.0110599384        1.3777482281
 H         -5.6137030021        1.6486846492        2.5271476746
 H         -4.7259765496        2.8879248281        1.6636015602
 O         -3.2280431999        1.0203487073        1.7725668712
 C         -2.1600779285        0.1619621614        1.6001319103
 O         -1.2152890557        0.3619229652        2.3919905862
 H          1.5577884671       -0.9456156463        0.7249125427
 C          1.2255218456       -0.9326119622       -0.3024204623
 C         -0.0821747377       -1.2797404791       -0.6110266782
 C         -0.4927409140       -1.2381109867       -1.9392653565
 C          0.3892223574       -0.8465707497       -2.9294920432
 C          1.6911207690       -0.4969739863       -2.6184661610
 C          2.1150759175       -0.5460599274       -1.2950840937
 N          3.4508151490       -0.2523457298       -0.9706114957
 S          3.8347780007        0.4445184040        0.5160123417
 O          3.7312605055       -0.5608013389        1.5433753138
 O          3.0715895101        1.6570092143        0.7140413841
 C          5.5522315841        0.8297297055        0.2292445770
 C          5.9201207065        2.1216732790       -0.0947136566
 C          7.2558672062        2.3955373915       -0.3450527814
 C          8.1949026729        1.3779031471       -0.2709431128
 C          7.8105993525        0.0859492861        0.0567603605
 C          6.4773798770       -0.1941774895        0.3098215836
 H          6.1329061226       -1.1795735082        0.5767082336
 H          8.5438062413       -0.7021131487        0.1163223956
 H          9.2332972898        1.5935634536       -0.4670441500
 H          7.5580325160        3.3994629390       -0.5963544318
 H          5.1561231860        2.8816239842       -0.1331142289
 H          3.9388521815        0.2142767090       -1.7233888253
 H          2.3775873805       -0.1930285367       -3.3942036394
 H          0.0583541501       -0.8110544542       -3.9565749993
 H         -1.5090103542       -1.5061041230       -2.1831331772
 C         -1.0156038841       -1.7187057983        0.4924595297
 H         -0.4758210917       -1.6005500824        1.4427900759
 C         -1.3700145791       -3.1847201918        0.3251081332
 C         -0.3480534995       -4.2179036836        0.6872428754
 C         -1.5664308993       -4.0358362850        1.5411741183
 H         -2.3325808979       -4.7961423383        1.5190564862
 H         -1.4469099134       -3.5637070077        2.5060408259
 H         -0.2749758241       -5.1057069769        0.0782394893
 H          0.5985508944       -3.8689114912        1.0732941548
 H         -2.0061916690       -3.3781512155       -0.5280446297
 O         -3.4936965043       -1.7726913103       -1.1532186076
