  62
        -98.94338800
 C         -2.4780589711       -1.1128225575        0.0095796799
 C         -3.4672262625       -0.6327812090        0.9102997034
 C         -4.4750934786        0.2734318382        0.3525731738
 C         -4.4359664489        0.5862655665       -0.9549514893
 C         -5.4099433706        1.4698055165       -1.6859523279
 C         -5.1070599263        2.9697756013       -1.5669216159
 C         -5.3996803645        3.5861196600       -0.1983607592
 H         -5.3546155474        4.6702448331       -0.3193409566
 H         -6.4172863660        3.3344586188        0.1018273317
 C         -4.4169941641        3.1714401419        0.9057585540
 H         -3.5165802740        2.7493882525        0.4531396544
 H         -4.1072582955        4.0549415607        1.4683811830
 C         -4.9806060113        2.1683097216        1.9122389288
 H         -4.1898647074        1.9154819776        2.6230625947
 H         -5.8000393804        2.6283779000        2.4688251878
 C         -5.4889545226        0.8635281959        1.2854886399
 H         -6.4293468618        1.0381233162        0.7630743386
 H         -5.6616733791        0.1418089242        2.0875282606
 H         -4.0586227750        3.1361919284       -1.8250195862
 H         -5.7182682433        3.4846504723       -2.3117889520
 H         -6.4210746138        1.2723175242       -1.3285964806
 H         -5.3527177800        1.1894501490       -2.7399943377
 O         -3.4843448935        0.0956493448       -1.7901202263
 C         -2.4783675334       -0.7459556326       -1.3359776966
 O         -1.6781509717       -1.0800029097       -2.2346672876
 O         -3.5105168756       -0.9604292496        2.1255067114
 C         -1.4421002268       -2.0617515294        0.5885820555
 C         -0.1246263588       -1.3747634803        0.8608222876
 C          0.3714165587       -1.2782335665        2.1557464214
 C          1.5934476901       -0.6762409342        2.3997478049
 C          2.3434821377       -0.1565727586        1.3601551057
 C          1.8551752995       -0.2439670665        0.0629606680
 C          0.6323665789       -0.8532302319       -0.1789222016
 H          0.2555172136       -0.9141233823       -1.1894271947
 N          2.6019254919        0.2998230180       -0.9998149704
 S          4.1792045679       -0.2489154738       -1.1925047889
 O          4.4958770755       -0.0248545570       -2.5860856239
 O          4.3300060554       -1.6020286400       -0.7082818464
 C          5.1461573917        0.8640434839       -0.1934926763
 C          5.0889035234        2.2140431869       -0.4795931431
 C          5.8401948902        3.0923492626        0.2848623882
 C          6.6343038028        2.6083583246        1.3140136868
 C          6.6845602909        1.2496666981        1.5856125591
 C          5.9342660669        0.3658192340        0.8255600491
 H          5.9372875649       -0.6978341610        1.0026242096
 H          7.3033153656        0.8753345518        2.3852524683
 H          7.2179068715        3.2944057181        1.9073474322
 H          5.8042882631        4.1494666186        0.0760834317
 H          4.4639675160        2.5477527425       -1.2911259749
 H          2.1118745719        0.2625765164       -1.8828151015
 H          3.2950233673        0.3150554844        1.5436683562
 H          1.9656868514       -0.6093797117        3.4105548176
 H         -0.2131946653       -1.6724276852        2.9742052198
 H         -1.8584034477       -2.3754180993        1.5554889242
 C         -1.2279172339       -3.3000661554       -0.2611247464
 C         -0.6747360420       -4.5353785111        0.3808755744
 C         -2.1083428023       -4.4940776953       -0.0544681578
 H         -2.4051578927       -5.0701606231       -0.9180194450
 H         -2.8708347512       -4.4258610627        0.7077528678
 H          0.0191294372       -5.1407647793       -0.1820840249
 H         -0.4655076278       -4.4976523984        1.4391784367
 H         -0.9210129788       -3.0801151768       -1.2756629871
