  62
        -98.94681114
 C          0.9073239691        1.5867952708       -0.7657368893
 C          2.1565481888        1.6381738816       -0.0956191288
 C          3.0746074499        0.5170332425       -0.3256411690
 C          2.6964817610       -0.4814617775       -1.1431372996
 C          3.5157913122       -1.7027772067       -1.4455415198
 C          3.1933807428       -2.8545722274       -0.4841392904
 C          3.1838331919       -2.4507229080        0.9903097097
 H          2.3445675512       -1.7738800488        1.1727807997
 H          2.9841277124       -3.3546921985        1.5713555492
 C          4.4888656711       -1.8082093772        1.4814176505
 H          5.3015184916       -2.0513161662        0.7952625307
 H          4.7432226011       -2.2398519874        2.4518964204
 C          4.4242488698       -0.2918686673        1.6741141912
 H          3.5415958193       -0.0386485583        2.2677895410
 H          5.3044340993        0.0156803532        2.2455765217
 C          4.3958233996        0.5439929833        0.3883533616
 H          4.5659849886        1.5884732833        0.6657893421
 H          5.2034200101        0.2277412442       -0.2752534083
 H          2.2053376432       -3.2516756681       -0.7295976710
 H          3.9254303035       -3.6497053767       -0.6406675305
 H          4.5717166319       -1.4475393958       -1.3770760693
 H          3.2940652728       -2.0206895264       -2.4659926900
 O          1.4984538713       -0.4980143282       -1.7745917900
 C          0.5606176104        0.5091094009       -1.5811331600
 O         -0.5043292192        0.3115895203       -2.1977824805
 O          2.4923586277        2.5933671615        0.6573309917
 C         -0.0618914020        2.7173734099       -0.4643088892
 C         -0.9139576421        2.3545819986        0.7302212703
 C         -1.1181024033        3.2486610280        1.7745046106
 C         -1.8564867134        2.8758870768        2.8839095602
 C         -2.3717682623        1.5961943563        2.9901951494
 C         -2.1732570812        0.6967439370        1.9494797591
 C         -1.4838026211        1.0934636981        0.8147450895
 H         -1.3556226802        0.3917483386        0.0067929092
 N         -2.6454927601       -0.6227407834        2.0144025783
 S         -1.6732597988       -1.8423202723        1.3923278481
 O         -2.0841354481       -3.0303556730        2.1160511874
 O         -0.2706683091       -1.5092359012        1.4886891988
 C         -2.1786460480       -2.0258358420       -0.3022448922
 C         -3.4861991481       -1.7577975230       -0.6537056426
 C         -3.8773442774       -1.9574611627       -1.9673430428
 C         -2.9634675966       -2.4259634115       -2.8985633326
 C         -1.6565323666       -2.6959693406       -2.5275439623
 C         -1.2585768472       -2.4949882108       -1.2163346520
 H         -0.2448523572       -2.6704665001       -0.8907726217
 H         -0.9411388160       -3.0475897596       -3.2535810821
 H         -3.2686423961       -2.5747792313       -3.9224963728
 H         -4.8919416075       -1.7420343734       -2.2623170131
 H         -4.1674699487       -1.3871559839        0.0942653473
 H         -3.0603552202       -0.8886415042        2.8959562880
 H         -2.9132787724        1.2910294955        3.8726409390
 H         -2.0090429943        3.5794267663        3.6882197504
 H         -0.6759480341        4.2324666384        1.7242156312
 H          0.5649162972        3.5729016303       -0.1758608886
 C         -0.9329262218        3.1318316596       -1.6329924694
 C         -1.4756237030        4.5275388792       -1.6814455489
 C         -0.4003550323        4.1076128005       -2.6372609087
 H         -0.6543748718        3.9639708708       -3.6763813289
 H          0.5984657873        4.4888433513       -2.4813698082
 H         -2.4735482130        4.6766522285       -2.0635786693
 H         -1.2054909039        5.2006664191       -0.8821615785
 H         -1.5610846810        2.3319018093       -2.0018740700
