  62
        -98.94428714
 C         -0.9352842859       -1.7626375322       -0.5067493861
 C         -2.0700205615       -1.8723133322        0.3405250913
 C         -3.1518781298       -0.9104910831        0.1131250675
 C         -3.0386300610       -0.0071910731       -0.8769120936
 C         -4.0682231774        1.0212757922       -1.2588664411
 C         -4.0081042518        2.3027572860       -0.4171369864
 C         -4.5154326986        2.1640162245        1.0183526806
 H         -4.6235141277        3.1735024990        1.4193914170
 H         -5.5062776165        1.7087367620        1.0128694966
 C         -3.5837419592        1.3646937610        1.9400754871
 H         -2.5926678035        1.2934498664        1.4852816031
 H         -3.4630815753        1.8958511246        2.8866908999
 C         -4.0779115531       -0.0435041186        2.2721792247
 H         -3.3255802995       -0.5328009679        2.8962325455
 H         -5.0042732242        0.0185834712        2.8477658571
 C         -4.3249528412       -0.9318893871        1.0457041340
 H         -5.2299194928       -0.6155286149        0.5272399513
 H         -4.4588890488       -1.9609370766        1.3882196996
 H         -2.9754466423        2.6551155161       -0.4005772355
 H         -4.6158487453        3.0551756757       -0.9247760647
 H         -3.8751628520        1.2826087846       -2.3014785759
 H         -5.0644644292        0.5830479963       -1.1912507633
 O         -1.9476487276        0.0552094116       -1.6821473322
 C         -0.8636654496       -0.7989699993       -1.5124201016
 O          0.0593890972       -0.5833429504       -2.3220484711
 O         -2.1751596980       -2.7485997161        1.2403205345
 C          0.1882051688       -2.7473782449       -0.2440183667
 C          1.2087235935       -2.1960724379        0.7251749594
 C          1.6365863739       -2.9655949271        1.8005078858
 C          2.5959307510       -2.4837831302        2.6724351047
 C          3.1475754624       -1.2311559953        2.4822070089
 C          2.7212367590       -0.4473071551        1.4136144324
 C          1.7512503810       -0.9303753180        0.5463947076
 H          1.4344527938       -0.3258678575       -0.2887679461
 N          3.2480565310        0.8361794603        1.2428030818
 S          3.3152890052        1.6404939559       -0.2190830367
 O          3.5111218081        0.7390394705       -1.3275506127
 O          4.3575950498        2.6265670465       -0.0136532401
 C          1.7613544612        2.4999705749       -0.3204941157
 C          0.9227821581        2.3210980101       -1.4004601644
 C         -0.2485159895        3.0613583289       -1.4658302883
 C         -0.5542598597        3.9645820117       -0.4601339699
 C          0.2968485269        4.1268921628        0.6233790954
 C          1.4669675144        3.3906574695        0.6945962795
 H          2.1627451412        3.4987566221        1.5099079931
 H          0.0516851868        4.8262044140        1.4064115861
 H         -1.4583228743        4.5505595522       -0.5225549525
 H         -0.9138141400        2.9191502559       -2.3030091686
 H          1.1781993795        1.5973384410       -2.1591698098
 H          4.0187660509        1.0733470781        1.8488460618
 H          3.9011206671       -0.8540678017        3.1565989170
 H          2.9208393193       -3.0899192569        3.5042631897
 H          1.2045774653       -3.9429015304        1.9557527922
 H         -0.2931622945       -3.6093607842        0.2396132730
 C          0.8958748897       -3.2372454046       -1.4924538076
 C          1.5109570858       -4.6033477593       -1.4959914001
 C          0.2784633361       -4.3335476623       -2.3050988394
 H          0.3609972365       -4.2846194415       -3.3803271701
 H         -0.6589585398       -4.7433601892       -1.9576074559
 H          2.4470774746       -4.7423939446       -2.0147265709
 H          1.4083838427       -5.2044273201       -0.6052847610
 H          1.4146432960       -2.4517480338       -2.0274944867
