  62
        -98.94795889
 C         -1.2509067937       -0.7887428381        0.3840242330
 C         -2.0852040579       -0.5867081306       -0.7411000286
 C         -3.0471369547        0.5195033550       -0.6323694527
 C         -3.0379309453        1.2976385906        0.4651748289
 C         -3.9915077232        2.4274660754        0.7234539565
 C         -5.2348538819        1.9440135303        1.4833124342
 C         -5.8846347892        0.7006773331        0.8758997969
 H         -5.1982115646       -0.1433392311        0.9739456228
 H         -6.7673821073        0.4696384610        1.4758808281
 C         -6.2921701502        0.8527961740       -0.5962006040
 H         -7.2958313017        0.4425888392       -0.7260273015
 H         -6.3375575013        1.9098877646       -0.8606163716
 C         -5.3810988859        0.1225794467       -1.5847210645
 H         -5.2580243520       -0.9167470358       -1.2702486061
 H         -5.8753100139        0.1137000795       -2.5597799498
 C         -3.9878516488        0.7326540749       -1.7848114800
 H         -3.5250830642        0.2346622917       -2.6421675832
 H         -4.0798117508        1.7960784459       -2.0161727318
 H         -5.9597393863        2.7595697477        1.5117840140
 H         -4.9436408605        1.7120282055        2.5103754042
 H         -3.4764153755        3.1803038054        1.3229938492
 H         -4.2821961252        2.8737035861       -0.2257528688
 O         -2.1764558341        1.1126786029        1.4979856546
 C         -1.2621926866        0.0726675946        1.4805327882
 O         -0.5221249427        0.0197326650        2.4850637123
 H          0.8442891067        0.4159160452       -0.3185563448
 C          1.2607309794       -0.3928729262       -0.8989297109
 C          0.7925016919       -1.6851560813       -0.7072546065
 C          1.3206850758       -2.7030107727       -1.4913022246
 C          2.2826907120       -2.4205407194       -2.4460345378
 C          2.7593369838       -1.1336593638       -2.6198651712
 C          2.2411086768       -0.1097959506       -1.8352547915
 N          2.6966977661        1.2119337088       -1.9595354746
 S          2.8397059899        2.1499329160       -0.5808953708
 O          1.5442270035        2.6087720185       -0.1450367831
 O          3.7795230583        3.1863317270       -0.9543591281
 C          3.5881737352        1.0676843467        0.6246152894
 C          4.9055175470        0.7078027862        0.4095318659
 C          5.5163638739       -0.1711340005        1.2876317092
 C          4.8005686828       -0.6799062609        2.3612210995
 C          3.4826508035       -0.3049998811        2.5665776076
 C          2.8655647628        0.5775348957        1.6926077671
 H          1.8379414441        0.8745477058        1.8363238459
 H          2.9173098139       -0.6943237624        3.3985072057
 H          5.2716394652       -1.3697932495        3.0434534191
 H          6.5434254621       -0.4593101794        1.1322839550
 H          5.4307210534        1.1342224693       -0.4296690732
 H          3.4793305445        1.3376808541       -2.5844502846
 H          3.5157500000       -0.9189067103       -3.3587886956
 H          2.6761791900       -3.2180306512       -3.0576558712
 H          0.9739277111       -3.7148822118       -1.3608197190
 C         -0.2308726729       -1.9119620986        0.3801506160
 H          0.2958060451       -1.8440355694        1.3443971329
 C         -0.9174887873       -3.2592045569        0.2944664397
 C         -0.3070917478       -4.4607037090        0.9495097356
 C         -1.5361020319       -3.8328632241        1.5328150704
 H         -2.4770256367       -4.3550841430        1.4454676876
 H         -1.4378458280       -3.2624223492        2.4453879179
 H         -0.4065674938       -5.4194223914        0.4633024921
 H          0.6264883098       -4.3245279967        1.4740335585
 H         -1.4488962176       -3.3961271665       -0.6399641245
 O         -2.0323918427       -1.2920741391       -1.7826004518
