  62
        -98.93661476
 C          1.2460069747        1.7068985999        0.4784545208
 C          1.4736034770        0.4047990226        0.9913564898
 C          2.7224524590       -0.2474331864        0.5790896943
 C          3.5835210056        0.4117935018       -0.2169898366
 C          4.9423451739       -0.0602857325       -0.6639898195
 C          4.9747248507       -1.2812597217       -1.6033015297
 C          5.1380936145       -2.6269202344       -0.8861766082
 H          5.8097763976       -3.2571902580       -1.4726481643
 H          5.6278994620       -2.4554855083        0.0731477286
 C          3.8493105835       -3.4249981562       -0.6685582175
 H          3.5651095902       -3.9045962908       -1.6078195702
 H          4.0631234399       -4.2155492661        0.0537051508
 C          2.6441726975       -2.6202745790       -0.1826226131
 H          1.8562259688       -3.3187321928        0.1013130460
 H          2.2429882212       -2.0253930212       -1.0067473183
 C          2.9361897848       -1.6728028140        0.9970152695
 H          2.2373690436       -1.8664086562        1.8130006517
 H          3.9501386822       -1.8175060010        1.3672054599
 H          5.8299456623       -1.1438881486       -2.2671471888
 H          4.0807166906       -1.2853563985       -2.2263544737
 H          5.5461956600       -0.2707731756        0.2217476523
 H          5.3896808978        0.7934405481       -1.1773275216
 O          3.3254124766        1.6608635016       -0.6905360349
 C          2.1391057820        2.3201046182       -0.4000127845
 O          2.0256264322        3.4224396169       -0.9689105333
 O          0.6739517742       -0.1813491539        1.7681742289
 C         -0.0635580773        2.3863304586        0.8464382810
 C         -1.0100964691        2.2169444366       -0.3167328897
 C         -1.2358093055        3.2041558626       -1.2675922344
 C         -2.0792034641        2.9589799677       -2.3371548381
 C         -2.7239650633        1.7421965353       -2.4682048636
 C         -2.5022477247        0.7470228914       -1.5223485313
 C         -1.6414877925        0.9876015499       -0.4639731440
 H         -1.4560940404        0.2090680624        0.2609903747
 N         -3.1292393936       -0.5040043303       -1.6243405427
 S         -3.7453580984       -1.2281376246       -0.2423065094
 O         -4.7939625598       -2.0981430271       -0.7349034626
 O         -4.1492058440       -0.2414511395        0.7321244206
 C         -2.4283168177       -2.2421648280        0.3910832038
 C         -2.0072011963       -2.0861895871        1.6954538758
 C         -1.0200482493       -2.9251067253        2.1864487584
 C         -0.4792091802       -3.9039966473        1.3690101540
 C         -0.9120946520       -4.0475662695        0.0586287420
 C         -1.8965717708       -3.2102017975       -0.4381752596
 H         -2.2652962445       -3.2950077260       -1.4470009031
 H         -0.4849730744       -4.8087732495       -0.5749441945
 H          0.2842573103       -4.5602307799        1.7579834668
 H         -0.6748182421       -2.8037375988        3.2002778207
 H         -2.4502283260       -1.3104373481        2.2996766082
 H         -3.7684141810       -0.5934780563       -2.4010485553
 H         -3.3913589451        1.5594799609       -3.2970743158
 H         -2.2444788247        3.7304866016       -3.0741944782
 H         -0.7354308229        4.1544585102       -1.1790657249
 H         -0.4666389435        1.8011292220        1.6848622150
 C          0.1068144057        3.8199522940        1.2974959116
 C         -1.0324119087        4.4986778993        1.9958270689
 C          0.1976745836        4.1193008925        2.7626506754
 H          0.8656476266        4.9031748406        3.0868189782
 H          0.1343548092        3.2880076813        3.4496414892
 H         -1.2124300169        5.5437490175        1.7954758668
 H         -1.9307299652        3.9211914037        2.1574492218
 H          0.7215084920        4.4140907287        0.6336000616
