  62
        -98.93506268
 C         -2.3178363504       -0.7039099331       -0.2551059492
 C         -3.5606187062       -1.0735848386        0.3104576974
 C         -4.4815287791        0.0241482483        0.6508069337
 C         -4.0866575038        1.2926761242        0.4448935290
 C         -4.8822359777        2.5474082897        0.6773854214
 C         -5.6055021290        2.9799461043       -0.6095682488
 C         -6.9812850074        2.3485661721       -0.8197215978
 H         -7.6844107455        2.7738747589       -0.1005300946
 H         -7.3205795420        2.6347313971       -1.8179151011
 C         -7.0262483952        0.8227532210       -0.7037628914
 H         -7.9216077537        0.4739988128       -1.2219656615
 H         -6.1661465582        0.3891116266       -1.2171070996
 C         -7.0701982173        0.3293632763        0.7500439411
 H         -7.2862821948        1.1722703671        1.4061634316
 H         -7.8966576240       -0.3744232227        0.8682813909
 C         -5.8040856647       -0.3913717217        1.2357672172
 H         -5.8832214401       -1.4590079803        1.0078158339
 H         -5.7433892871       -0.3105050756        2.3263409678
 H         -5.7304491305        4.0645260805       -0.5927536563
 H         -4.9559875262        2.7391172066       -1.4550294527
 H         -5.5824986640        2.4136319054        1.4965216250
 H         -4.1644353715        3.3235499274        0.9512468167
 O         -2.8684693748        1.6064850325       -0.0765245274
 C         -1.9571050402        0.6301291722       -0.4412521852
 O         -0.8925301693        1.0738994930       -0.9131323575
 O         -3.8913803961       -2.2725167613        0.5167154459
 C         -1.3320546323       -1.7998399997       -0.6234323446
 C         -0.1258225573       -1.6750226584        0.2739452626
 C         -0.2720266256       -1.9649065823        1.6284617926
 C          0.7887933279       -1.8149905988        2.4999117873
 C          2.0191862459       -1.3737889445        2.0426367627
 C          2.1734424224       -1.0752889478        0.6963769754
 C          1.1053223569       -1.2332028414       -0.1800884017
 H          1.2356549033       -0.9859856313       -1.2218009529
 N          3.4227259024       -0.6484551548        0.2025184554
 S          4.2880513894        0.5134379810        1.0693397392
 O          4.8022848764       -0.0968605635        2.2700074192
 O          3.4943431561        1.7082003490        1.2585570357
 C          5.6257236053        0.8208625876       -0.0667895235
 C          5.5494449058        1.8941180759       -0.9336381425
 C          6.5838493195        2.1040291824       -1.8323194872
 C          7.6683464286        1.2399080958       -1.8507416963
 C          7.7300498723        0.1664839035       -0.9744745663
 C          6.7002247063       -0.0481842022       -0.0726050006
 H          6.7079051033       -0.8627422117        0.6323513660
 H          8.5758160526       -0.5017635427       -0.9910607140
 H          8.4711743525        1.4059862967       -2.5516172773
 H          6.5393677030        2.9390855840       -2.5129181487
 H          4.6904945377        2.5442952161       -0.8794580971
 H          3.3514989154       -0.3575215937       -0.7640474670
 H          2.8504504084       -1.2424473456        2.7155675955
 H          0.6607042910       -2.0415539967        3.5480001072
 H         -1.2356259626       -2.2990182174        1.9885256695
 H         -1.8410872469       -2.7427357697       -0.3799242547
 C         -1.0128328622       -1.7845338987       -2.1027403332
 C         -0.4046732575       -2.9963416232       -2.7414827886
 C         -1.8276408860       -2.6293075867       -3.0339032962
 H         -2.0694707127       -2.2333226089       -4.0088631784
 H         -2.6122335900       -3.2327325977       -2.6016098215
 H          0.3313144653       -2.8566039365       -3.5185043847
 H         -0.2209464412       -3.8514523970       -2.1089736100
 H         -0.7057889796       -0.8086298820       -2.4605439917
