  62
        -98.93801772
 C         -2.3926119684       -1.2092738860       -0.1004685225
 C         -3.1694546401       -0.4913966738        0.8348799998
 C         -4.0076896616        0.6036939967        0.3083299023
 C         -3.9791980177        0.8600974286       -1.0131455636
 C         -4.7048138723        1.9437955965       -1.7652279592
 C         -4.0578570987        3.3264898758       -1.5803191716
 C         -3.6382074940        3.6551969060       -0.1496928871
 H         -2.9449896501        2.8901913481        0.2059971294
 H         -3.0905765452        4.6012247970       -0.1724826934
 C         -4.7847121011        3.8039114284        0.8477374115
 H         -4.3476566206        4.1122056432        1.8012060571
 H         -5.4480085564        4.6045487038        0.5129800005
 C         -5.6250106543        2.5492281550        1.0935079311
 H         -6.3159111006        2.3743820351        0.2733510718
 H         -6.2372803674        2.7369965418        1.9804452983
 C         -4.8192003768        1.2864670674        1.3832409684
 H         -5.5019264886        0.5195735497        1.7692924078
 H         -4.1211847283        1.4879050328        2.2042834754
 H         -4.7545805884        4.0851248812       -1.9402990292
 H         -3.1625992070        3.3657481460       -2.2056385602
 H         -4.6564691925        1.6769191972       -2.8231183977
 H         -5.7511937867        1.9621998365       -1.4757370124
 O         -3.2004874790        0.1486754643       -1.8776852816
 C         -2.3918306933       -0.8914028090       -1.4582005028
 O         -1.7381681556       -1.4378177397       -2.3657930014
 O         -3.1591717636       -0.7424294169        2.0722348935
 C         -1.5095686420       -2.3430811213        0.3845834662
 C         -0.0612275365       -2.0568254976        0.0700298060
 C          0.8121388562       -3.0105190398       -0.4356664481
 C          2.1346278942       -2.6871920671       -0.6872731027
 C          2.6153106897       -1.4148104201       -0.4409637789
 C          1.7545201104       -0.4560329217        0.0777253949
 C          0.4330522906       -0.7852190013        0.3349216249
 H         -0.2349616988       -0.0361836807        0.7440323301
 N          2.2312039441        0.8446249747        0.3240551369
 S          3.6028189052        1.0075335184        1.2815249183
 O          3.7234162267       -0.0842814720        2.2198740880
 O          3.5121510528        2.3355376053        1.8483608312
 C          4.9479826597        0.9641794780        0.1166184993
 C          5.9486273304        0.0222171312        0.2539324238
 C          6.9900854435        0.0134723489       -0.6610117482
 C          7.0121188880        0.9417989421       -1.6905873711
 C          6.0005332477        1.8829392187       -1.8127592167
 C          4.9573674566        1.8980546154       -0.9008356424
 H          4.1544968844        2.6141528257       -0.9576953787
 H          6.0209893844        2.6033435978       -2.6146032427
 H          7.8223938038        0.9323266782       -2.4023581494
 H          7.7776900937       -0.7168252657       -0.5676792365
 H          5.8860603117       -0.6831055808        1.0671985830
 H          1.5134305953        1.4850547161        0.6312876617
 H          3.6416789954       -1.1571981266       -0.6449266293
 H          2.7996762188       -3.4375611105       -1.0865640590
 H          0.4567204089       -4.0075037905       -0.6373638533
 H         -1.6214697077       -2.3534796287        1.4798045342
 C         -2.0004061340       -3.6655978450       -0.1663177848
 C         -1.8059547811       -4.9305117145        0.6136103814
 C         -3.1726526182       -4.3290950460        0.4901044462
 H         -3.9021340562       -4.8231818909       -0.1338256815
 H         -3.5979353769       -3.8397382681        1.3544165930
 H         -1.5992195157       -5.8424002154        0.0740376826
 H         -1.3055776975       -4.8581726061        1.5675578664
 H         -1.9393312601       -3.7126091285       -1.2477729929
