  62
        -98.94334334
 C         -1.9073281004       -0.6111580709       -0.7462129897
 C         -2.2657207707       -0.1109971998        0.5291783098
 C         -3.7008842008       -0.1382901594        0.8395785894
 C         -4.5707191406       -0.6442407701       -0.0536239104
 C         -6.0591254307       -0.7671412598        0.1308395993
 C         -6.8380075705        0.5110097900       -0.2086894020
 C         -6.6929457407        1.6485401608        0.8028800572
 H         -7.4533858505        2.3929344007        0.5584586564
 H         -6.9140849810        1.2739553616        1.8028181174
 C         -5.3166822206        2.3284778507        0.7976961070
 H         -4.7907564104        2.0789458399       -0.1267076226
 H         -5.4468386705        3.4129708107        0.8088794961
 C         -4.4258878609        1.9668609915        1.9863405475
 H         -4.8819047012        2.3304349523        2.9098571371
 H         -3.4659417609        2.4739627914        1.8615515374
 C         -4.1507209411        0.4647958216        2.1359599188
 H         -3.3426056413        0.3335736421        2.8597059491
 H         -5.0393356013       -0.0457106680        2.5066931890
 H         -6.5249102602        0.8586268092       -1.1958988121
 H         -7.8948250805        0.2413334501       -0.2714429120
 H         -6.3908479806       -1.5610677003       -0.5418896802
 H         -6.2781345410       -1.0667554290        1.1561003195
 O         -4.1805370503       -1.1385277411       -1.2594891299
 C         -2.8486175702       -1.1175319415       -1.6413449196
 O         -2.6322400300       -1.5811391024       -2.7802810491
 O         -1.4352285009        0.3296233408        1.3647435397
 C         -0.4526022403       -0.6070004013       -1.1752448793
 C          0.3967037493       -1.4060356606       -0.2159030585
 C         -0.0993466509       -2.5952394302        0.3117652023
 C          0.6581738288       -3.3530450395        1.1829488732
 C          1.9380235487       -2.9556498694        1.5273084732
 C          2.4514604490       -1.7815139199        0.9920660824
 C          1.6796424793       -1.0112683305        0.1322981916
 H          2.0971313195       -0.1034882308       -0.2705885590
 N          3.7441050989       -1.3494379597        1.3227761924
 S          4.7324090293       -0.6912422607        0.1443697621
 O          4.4688186096       -1.2630603017       -1.1552677575
 O          6.0756725592       -0.8699879104        0.6546710426
 C          4.3539587495        1.0480891493        0.1437015106
 C          4.3722761599        1.7348939483       -1.0539157499
 C          4.1320824800        3.1003303284       -1.0487935211
 C          3.8786229097        3.7514483893        0.1484159984
 C          3.8651218893        3.0469994203        1.3428658589
 C          4.1093034092        1.6830230603        1.3452449601
 H          4.1042859389        1.1059274610        2.2547118905
 H          3.6646485791        3.5562823511        2.2717599885
 H          3.6896450598        4.8134293894        0.1501042875
 H          4.1425447003        3.6491083476       -1.9773434115
 H          4.5618095500        1.1870382576       -1.9632972694
 H          4.2557658687       -1.9682757093        1.9348461530
 H          2.5337349685       -3.5494370089        2.2039867038
 H          0.2529541386       -4.2668573192        1.5912235938
 H         -1.0945516109       -2.9157476403        0.0342058123
 H         -0.4199742201       -1.1133561321       -2.1520534289
 C          0.0251981899        0.8205783085       -1.3510345703
 C          1.0543378602        1.1593329176       -2.3856569003
 C         -0.3735799197        1.5658744975       -2.5880936610
 H         -0.6301884597        2.6108870176       -2.5016895819
 H         -0.9618403296        1.0301430270       -3.3193527708
 H          1.7766142102        1.9283256777       -2.1567466408
 H          1.4459165303        0.3520654571       -2.9867937096
 H          0.0387391696        1.3699179592       -0.4165310208
