  62
        -98.93698749
 C          2.1589745983        0.9771532738        0.1175021201
 C          2.6521448116        0.0662508698        1.0776964642
 C          2.9620808160       -1.2933403019        0.6026736657
 C          2.7414709681       -1.6065207015       -0.6881250068
 C          2.8938301287       -2.9147872610       -1.4360534675
 C          3.6687801067       -4.0800548987       -0.8262372209
 C          5.1716616139       -3.8417375144       -0.6820842600
 H          5.6017529319       -4.6898038882       -0.1450522299
 H          5.6159507531       -3.8193258995       -1.6802391771
 C          5.5687502419       -2.5497049763        0.0274207925
 H          6.6607731128       -2.5037004253        0.0515673342
 H          5.2231087763       -1.6919081812       -0.5530969089
 C          5.0672490345       -2.4116571653        1.4633155770
 H          5.5492230135       -1.5312727867        1.8966173805
 H          5.3748951707       -3.2821147674        2.0457629745
 C          3.5475843305       -2.2305142270        1.6201126999
 H          3.3608467829       -1.7752692953        2.5972978332
 H          3.0304427054       -3.1871236983        1.6025297021
 H          3.5318173383       -4.9296460972       -1.5007653165
 H          3.2325758496       -4.3631746955        0.1272065749
 H          1.8712359740       -3.2483523322       -1.6479985871
 H          3.3376958397       -2.6552887306       -2.4025607627
 O          2.2471779287       -0.6945913843       -1.5771577265
 C          1.9373141707        0.6026731997       -1.2066684188
 O          1.4883957636        1.3083267264       -2.1299337445
 O          2.8087887710        0.3685740818        2.2925793797
 C          1.7739225650        2.3802522959        0.5521682358
 C          0.3015175654        2.5842469619        0.2908977313
 C         -0.2254296977        3.6935842314       -0.3562558130
 C         -1.5829715611        3.7758091751       -0.6184010228
 C         -2.4426850282        2.7606330141       -0.2413592516
 C         -1.9275714769        1.6583424434        0.4253076074
 C         -0.5725683192        1.5824644472        0.6954725012
 H         -0.1779033594        0.7097257861        1.2034796061
 N         -2.8003174445        0.5997098763        0.7934202562
 S         -3.1564933033       -0.4528819176       -0.4857748656
 O         -2.1779094331       -1.5223195214       -0.5191092408
 O         -3.3213497954        0.3171559700       -1.6909907154
 C         -4.7332790031       -1.0964252026        0.0409047500
 C         -4.8066441560       -2.3402179617        0.6361995864
 C         -6.0385459813       -2.8028121207        1.0725877534
 C         -7.1682753719       -2.0156506453        0.9108541093
 C         -7.0781568370       -0.7677137058        0.3119891316
 C         -5.8498768786       -0.3005316356       -0.1266255135
 H         -5.7315493799        0.6579272540       -0.6040595023
 H         -7.9589207786       -0.1587477362        0.1869223587
 H         -8.1251629323       -2.3779113668        1.2519892222
 H         -6.1113599514       -3.7735450809        1.5360741902
 H         -3.9034460965       -2.9208368470        0.7343933294
 H         -2.3931229516        0.0341542582        1.5283008862
 H         -3.4949777262        2.7997773902       -0.4687256677
 H         -1.9733621548        4.6393850878       -1.1350768630
 H          0.4301929083        4.4877292022       -0.6742395349
 H          1.9423032921        2.4090239666        1.6391010499
 C          2.6602225023        3.4137344405       -0.1085827366
 C          2.9221023169        4.7257139728        0.5672577596
 C          4.0074089731        3.6962494664        0.4835600470
 H          4.8372157316        3.8709081743       -0.1845907548
 H          4.2757821155        3.1587379814        1.3813345305
 H          3.0098517829        5.6113363412       -0.0436108709
 H          2.4574380820        4.8944104678        1.5267881206
 H          2.5810068249        3.3971608596       -1.1899104554
