  62
        -98.93528682
 C         -1.0351641898       -1.1969573105        0.3080163716
 C         -1.4270246591        0.0567497581        0.8406827172
 C         -2.4625501595        0.7832303035        0.0952583233
 C         -2.9217058389        0.2676193304       -1.0592602457
 C         -4.0057605191        0.8766026079       -1.8998470812
 C         -5.3856542718        0.3319241068       -1.5048792461
 C         -5.6573380021        0.3702919055       -0.0009590720
 H         -6.6695543653       -0.0087092067        0.1564783404
 H         -4.9750917823       -0.3189399158        0.5020286288
 C         -5.5285925824        1.7625908467        0.6325174523
 H         -6.3771499306        1.9223173022        1.3011775079
 H         -5.5790841245        2.5280559939       -0.1425366250
 C         -4.2610079374        1.9661118064        1.4647481077
 H         -4.3768370198        2.8895121035        2.0384379115
 H         -4.1586586099        1.1473914577        2.1815849147
 C         -2.9527378862        2.0811463346        0.6716708875
 H         -3.0658564874        2.8317376371       -0.1123662532
 H         -2.1722964174        2.4122727326        1.3617753972
 H         -5.4570802885       -0.7058792292       -1.8385323897
 H         -6.1487737486        0.9101758685       -2.0290339667
 H         -3.9843958523        1.9582980897       -1.7846624996
 H         -3.8125376084        0.6260996543       -2.9441450145
 O         -2.4750622660       -0.9046728487       -1.5735287283
 C         -1.5361116248       -1.6792188225       -0.9026568472
 O         -1.2462136529       -2.7350922376       -1.4900613016
 H          1.7542083991       -0.1356050238        0.5618937900
 C          2.0058722588       -1.0277137783        0.0067374546
 C          1.2142213308       -2.1637810273        0.1626373468
 C          1.5461756964       -3.2931989958       -0.5746242738
 C          2.6452258224       -3.2822633167       -1.4177429935
 C          3.4321249285       -2.1553058611       -1.5560234946
 C          3.0992795042       -1.0089736889       -0.8416876207
 N          3.8332404137        0.1720925603       -1.0018090458
 S          3.9078010231        1.3402708085        0.1833916946
 O          4.9924143418        2.2013801182       -0.2402324643
 O          4.0474454014        0.7638442433        1.5007496223
 C          2.3769250519        2.2381977651        0.0496378205
 C          1.8420128111        2.4719872149       -1.2013561712
 C          0.6799031435        3.2192851064       -1.3013384176
 C          0.0824636515        3.7264118949       -0.1579029674
 C          0.6312938368        3.4817936129        1.0905311110
 C          1.7893178186        2.7295602041        1.1977979044
 H          2.2385816921        2.5028181837        2.1517378118
 H          0.1608645740        3.8662310232        1.9812685766
 H         -0.8182754732        4.3138670902       -0.2390948219
 H          0.2435657973        3.4040891572       -2.2699528024
 H          2.3318824169        2.0639416957       -2.0700341258
 H          4.6778157217        0.1011775728       -1.5482266745
 H          4.2852825943       -2.1535242579       -2.2169503829
 H          2.8877722563       -4.1712775806       -1.9803828886
 H          0.9414718437       -4.1801552401       -0.5274141082
 C          0.0224672704       -1.9874786741        1.0697325422
 H          0.3467353677       -1.2961229145        1.8648038548
 C         -0.5906391055       -3.1696317264        1.8055883802
 C         -1.0557270689       -4.4517871089        1.1867405593
 C          0.1322611265       -4.4488014181        2.1021432841
 H          0.0158385998       -4.8800906574        3.0855153272
 H          1.1148987231       -4.5854685588        1.6800812464
 H         -1.9801561620       -4.8729749062        1.5566549374
 H         -0.9253562537       -4.5860721557        0.1259354276
 H         -1.2267896716       -2.7954024120        2.6052525465
 O         -0.9364353866        0.5432924935        1.8953933581
