  62
        -98.93882185
 C          1.9493285276        0.4300542628       -0.2082264496
 C          2.9772340543        0.8035455245        0.6911927998
 C          4.2125311321       -0.0026052485        0.6781345816
 C          4.2855263613       -1.0568885471       -0.1553765246
 C          5.4413375475       -1.9972925898       -0.3701184862
 C          6.5647375105       -1.3715445340       -1.2127841170
 C          6.9255995639        0.0638669492       -0.8392306539
 H          7.6487295658        0.4260916841       -1.5747752040
 H          6.0360671806        0.6906041403       -0.9242680746
 C          7.5412617699        0.2409883288        0.5466772707
 H          7.8276864679        1.2914912808        0.6421676125
 H          8.4522020733       -0.3581392413        0.6131602775
 C          6.6390610087       -0.1142431865        1.7303822465
 H          7.1122740976        0.2869916976        2.6314248364
 H          6.5782197115       -1.1904737351        1.8683462795
 C          5.2393831925        0.4893003210        1.6695934447
 H          4.7709222621        0.3813712650        2.6553715977
 H          5.3217724402        1.5700994500        1.5077959623
 H          7.4496834379       -2.0050989002       -1.1324928468
 H          6.2430548010       -1.3723329436       -2.2571657776
 H          5.8214936950       -2.3460219751        0.5854795304
 H          5.0456869936       -2.8630294129       -0.9060209462
 O          3.2620967308       -1.3932443636       -0.9901400646
 C          2.0801763025       -0.6772271091       -1.0451540531
 O          1.2573568548       -1.1233380418       -1.8687194312
 O          2.8761626001        1.7846204536        1.4758094549
 C          0.6716293928        1.2529762653       -0.2038259284
 C         -0.4244085709        0.4509959048        0.4529105741
 C         -0.5999241685        0.5214387687        1.8315047488
 C         -1.5844881296       -0.2207291491        2.4580268956
 C         -2.4134879822       -1.0494249104        1.7227450129
 C         -2.2390608576       -1.1328289327        0.3476888359
 C         -1.2588655720       -0.3782316898       -0.2816581585
 H         -1.1213947822       -0.4657766239       -1.3478226712
 N         -3.0877352101       -1.9675054464       -0.4048213164
 S         -4.7311716364       -1.7089557603       -0.2092393003
 O         -5.1855214556       -2.3795606340        0.9834931744
 O         -5.3437447022       -2.1381317232       -1.4468040873
 C         -4.8813905292        0.0574809676       -0.0052251042
 C         -5.2668463578        0.5812468898        1.2115801526
 C         -5.3112018035        1.9579058969        1.3643024672
 C         -4.9651397141        2.7817233535        0.3048682507
 C         -4.5823085968        2.2399278622       -0.9126895585
 C         -4.5367670285        0.8648476687       -1.0712715763
 H         -4.2477276966        0.4105473294       -2.0054623010
 H         -4.3139394357        2.8836040832       -1.7349219960
 H         -4.9938080312        3.8530339822        0.4267021501
 H         -5.6096075154        2.3823372411        2.3092936289
 H         -5.5244035408       -0.0955600977        2.0096327629
 H         -2.8406727730       -2.0093112664       -1.3829705028
 H         -3.1874048568       -1.6368412608        2.1900013335
 H         -1.7094790801       -0.1536181946        3.5279603652
 H          0.0541131495        1.1601537010        2.4080140146
 H          0.8889259224        2.1153058742        0.4403350328
 C          0.2952066640        1.7552557708       -1.5830698880
 C         -0.7954426055        2.7753422991       -1.7124048582
 C          0.6287659628        3.1633844842       -1.9700303172
 H          0.9359403613        3.3582084832       -2.9867685046
 H          1.1319714375        3.7775787012       -1.2378629960
 H         -1.4673197523        2.7044622263       -2.5538458234
 H         -1.2616897177        3.1216042834       -0.8025861216
 H          0.3748966435        0.9998627766       -2.3548046633
