  62
        -98.93530550
 C         -1.5482931221       -0.3884091172        0.4599712953
 C         -2.7036166731       -1.0229037833       -0.0501565613
 C         -3.7891835222       -0.1426407007       -0.5351021964
 C         -3.6139704640        1.1907429826       -0.5045893424
 C         -4.5817549031        2.2707482470       -0.9092016652
 C         -5.6946514605        2.4882066560        0.1289487532
 C         -6.3095734926        1.2087454721        0.6900352710
 H         -6.9994710800        1.4941771948        1.4886797898
 H         -5.5234921854        0.6020998350        1.1432556240
 C         -7.0857503710        0.3639152754       -0.3173285564
 H         -7.8960290709        0.9631795292       -0.7387928080
 H         -7.5383500879       -0.4641492549        0.2343161255
 C         -6.2669005338       -0.2244048771       -1.4682160950
 H         -6.0556911053        0.5270630487       -2.2241784815
 H         -6.8869852703       -0.9846553503       -1.9524237489
 C         -4.9788281542       -0.9221525990       -1.0426794698
 H         -4.6049117007       -1.5093798650       -1.8901890201
 H         -5.2115323324       -1.6583312062       -0.2648069112
 H         -6.4750965044        3.1012662588       -0.3249220477
 H         -5.2703157102        3.0474111011        0.9663533496
 H         -4.0028598905        3.1928040579       -0.9960068596
 H         -5.0009080041        2.0502475298       -1.8863764528
 O         -2.4684387054        1.7596210481       -0.0309963827
 C         -1.4236259054        1.0041922726        0.4572275460
 O         -0.4501997418        1.6722036582        0.8596294652
 H          2.0754694728       -0.2139696843        0.3419107499
 C          1.7741468553       -1.0247987309       -0.3032378064
 C          0.5375411290       -1.6242440618       -0.1127631352
 C          0.1486711779       -2.6497163734       -0.9681158592
 C          0.9911124173       -3.0666733379       -1.9821046896
 C          2.2357832719       -2.4860011623       -2.1518791310
 C          2.6299453597       -1.4543529707       -1.3075426246
 N          3.8727182711       -0.8305805776       -1.4724582922
 S          4.7188625897       -0.2149643482       -0.1698310659
 O          6.0831853410       -0.1244420107       -0.6449669284
 O          4.5152549281       -1.0045317368        1.0222532581
 C          4.0716617878        1.4281467547        0.0452690382
 C          3.6202071648        1.8335499583        1.2847550211
 C          3.1339193765        3.1223261747        1.4333641450
 C          3.1107373817        3.9793328032        0.3447720548
 C          3.5723027213        3.5586728599       -0.8933078926
 C          4.0590247225        2.2712157257       -1.0479309440
 H          4.4279576176        1.9089238909       -1.9930985863
 H          3.5506966380        4.2295615558       -1.7371715045
 H          2.7269790856        4.9803810286        0.4630532561
 H          2.7683819570        3.4489746180        2.3935571243
 H          3.6495648198        1.1334646692        2.1053602988
 H          4.4779641810       -1.2467077864       -2.1643817761
 H          2.8968988308       -2.8234176368       -2.9357099890
 H          0.6798870866       -3.8616174744       -2.6430849725
 H         -0.8231878978       -3.1004393849       -0.8408832825
 C         -0.3503225775       -1.1452890349        1.0108052230
 H          0.2231877977       -0.4068513239        1.5878139140
 C         -0.7224840528       -2.2860141975        1.9376754042
 C          0.3395805222       -2.8611623694        2.8242386340
 C         -0.7704464924       -2.0454442614        3.4149085381
 H         -1.5288729956       -2.5499360944        3.9947133165
 H         -0.5394964861       -1.0512133154        3.7694417831
 H          1.3257022832       -2.4224457790        2.7725420376
 H          0.3440933386       -3.9262266963        2.9987551330
 H         -1.4536077959       -2.9646811283        1.5197957330
 O         -2.8611892700       -2.2718547830       -0.1060177352
