  62
        -98.93723459
 C         -1.1607201071       -0.9198945891        0.5775166171
 C         -1.9061472720       -0.5903063402       -0.5780492848
 C         -2.9277427206        0.4688405806       -0.4326268568
 C         -3.0416144412        1.1090643920        0.7449374688
 C         -4.0253359950        2.1796752619        1.1357193867
 C         -5.4338283728        1.6228479106        1.4008830949
 C         -5.9229898286        0.5974649024        0.3813092699
 H         -5.2183035098       -0.2351863228        0.3441666609
 H         -6.8759173516        0.2005989581        0.7409637214
 C         -6.1442622449        1.1373245416       -1.0295139291
 H         -6.8789847372        1.9447335918       -0.9930133873
 H         -6.5713076606        0.3259476243       -1.6243109087
 C         -4.8966866539        1.6491614964       -1.7527721089
 H         -4.6096463909        2.6338346143       -1.3931709615
 H         -5.1584924810        1.7698624851       -2.8081282730
 C         -3.7000715427        0.7039235962       -1.7085517332
 H         -4.0126642174       -0.2857837675       -2.0610752618
 H         -2.9568854701        1.0478275875       -2.4388284890
 H         -6.1325190903        2.4600262195        1.4435447997
 H         -5.4256783911        1.1398070458        2.3811048358
 H         -4.0496665975        2.9572981538        0.3778146322
 H         -3.6483735468        2.6293739469        2.0572515511
 O         -2.2426484930        0.8135297881        1.8104634597
 C         -1.2836336676       -0.1773473339        1.7530817901
 O         -0.6051341361       -0.2981084808        2.7941804238
 O         -1.7482161067       -1.1496473059       -1.6944451380
 C         -0.0770772312       -1.9833674125        0.5562060897
 C          0.8432733127       -1.7554092778       -0.6186865208
 C          1.2713093140       -2.7513118434       -1.4860602156
 C          2.1479917241       -2.4494494696       -2.5145820112
 C          2.6326947031       -1.1658448470       -2.6870976541
 C          2.2061120956       -0.1610965499       -1.8254445705
 C          1.3185334948       -0.4643233489       -0.8079277397
 H          0.9650983706        0.3279945744       -0.1658338265
 N          2.6635967316        1.1582987332       -1.9586901627
 S          2.8508149581        2.1112304668       -0.6002727823
 O          1.5699997442        2.5731703392       -0.1244110612
 O          3.7751879672        3.1443648612       -1.0178168413
 C          3.6368495015        1.0538445060        0.6036248195
 C          4.9238663257        0.6301740117        0.3316945044
 C          5.5532525804       -0.2241238721        1.2213748783
 C          4.8863762517       -0.6440638373        2.3626849246
 C          3.5985076787       -0.2049544466        2.6254614970
 C          2.9649310497        0.6533917030        1.7400474444
 H          1.9602961521        1.0036243371        1.9221553618
 H          3.0712042709       -0.5273558818        3.5094552687
 H          5.3720729732       -1.3148873634        3.0535515542
 H          6.5571823767       -0.5624619449        1.0221812649
 H          5.4132513265        0.9864953268       -0.5600649131
 H          3.4022038840        1.2952544573       -2.6322215008
 H          3.3199923337       -0.9367063832       -3.4867586805
 H          2.4648649539       -3.2298666008       -3.1895805618
 H          0.9044570560       -3.7580446041       -1.3730153110
 H          0.5148786569       -1.7902681568        1.4674070969
 C         -0.5845232880       -3.4135002559        0.6701870951
 C         -1.9444120785       -3.7134887128        1.2253247989
 C         -1.6555586023       -3.9602359379       -0.2234256887
 H         -1.5689007419       -4.9833851877       -0.5593316071
 H         -2.0789847080       -3.2916064347       -0.9553636705
 H         -2.0537667343       -4.5621756698        1.8840069174
 H         -2.5748678326       -2.8750207985        1.4852449590
 H          0.2060977895       -4.1005814082        0.9554158816
