  62
        -98.93589017
 C         -2.3756463983       -0.7311627881        0.2314218166
 C         -2.4857720430        0.6831154724        0.2633681448
 C         -3.7014229369        1.2611967704       -0.3230540837
 C         -4.6224368850        0.4405452997       -0.8598315792
 C         -5.9311866331        0.8831721883       -1.4460764083
 C         -7.0415380133        0.8900610530       -0.3861472859
 C         -6.6564748912        1.6094250304        0.9064858249
 H         -7.5248469543        1.5779085777        1.5680382292
 H         -5.8562543728        1.0527319265        1.3996504351
 C         -6.2130437497        3.0663878458        0.7140334700
 H         -6.5457280925        3.4300176606       -0.2587631454
 H         -6.6968813773        3.6833694048        1.4740840845
 C         -4.7062087908        3.2936920981        0.8502818168
 H         -4.5283753467        4.3705304065        0.9149710143
 H         -4.3498918164        2.8479309920        1.7825716849
 C         -3.8432233212        2.7571641892       -0.2989581957
 H         -4.2317960311        3.1220649244       -1.2521269677
 H         -2.8308645219        3.1510603926       -0.1673466036
 H         -7.9267796813        1.3612227406       -0.8169140860
 H         -7.2916573236       -0.1444594289       -0.1404326977
 H         -5.8133122899        1.8780403013       -1.8710595018
 H         -6.2041466255        0.1872806860       -2.2410145555
 O         -4.4802284813       -0.9067888399       -0.8855752531
 C         -3.3617683877       -1.5334941951       -0.3453281274
 O         -3.3892563807       -2.7721621581       -0.4520672838
 O         -1.6043111556        1.4301154137        0.7708997590
 C         -1.1224995785       -1.3268815246        0.8471184453
 C         -0.0347393116       -1.4948069225       -0.1837740172
 C         -0.2804811828       -2.1272412006       -1.3988782606
 C          0.7325347640       -2.2713192420       -2.3288600149
 C          2.0024219436       -1.7873408024       -2.0690739746
 C          2.2607861363       -1.1591431489       -0.8559546769
 C          1.2416055863       -1.0170978024        0.0762212324
 H          1.4481859185       -0.5073123032        1.0052270426
 N          3.5560551400       -0.7054147864       -0.5546232510
 S          3.7541398903        0.7010976548        0.3591689278
 O          3.4954534005        0.3942015675        1.7431398513
 O          2.9914493799        1.7839652585       -0.2199101079
 C          5.5000014377        0.9756487764        0.1228734766
 C          6.3930168726        0.2205057082        0.8596836590
 C          7.7515321393        0.4073173038        0.6605758624
 C          8.1922851908        1.3404172252       -0.2663840646
 C          7.2843609961        2.0924965140       -0.9964533103
 C          5.9239234187        1.9095122927       -0.8033277983
 H          5.1812218393        2.4765283124       -1.3414755392
 H          7.6298371897        2.8196549794       -1.7135228456
 H          9.2502297979        1.4846267373       -0.4186854642
 H          8.4606041264       -0.1733738154        1.2281804751
 H          6.0040942667       -0.4852574529        1.5748720538
 H          4.1592780187       -0.6944754760       -1.3664142852
 H          2.7898233265       -1.8974913926       -2.7992073386
 H          0.5293630390       -2.7620168790       -3.2689063914
 H         -1.2704301303       -2.5068623091       -1.6020396171
 H         -0.7723685993       -0.5645068496        1.5627181116
 C         -1.3834930289       -2.6014616399        1.6387782991
 C         -0.9090887823       -3.9544417572        1.2108190989
 C         -0.2554568067       -3.2679223160        2.3698493534
 H         -0.4344884011       -3.6428457363        3.3661824382
 H          0.7355841477       -2.8646490054        2.2207126871
 H         -1.5608674841       -4.7931700863        1.4009933746
 H         -0.3580871568       -4.0332511368        0.2873677225
 H         -2.3412952066       -2.5694214942        2.1484783704
