  62
        -98.93574124
 C         -2.1804408255       -1.2088951320       -0.0977297148
 C         -2.9680115766       -0.5310025809        0.8585273624
 C         -3.8719285495        0.5180583108        0.3509759761
 C         -3.8650706801        0.8030919820       -0.9639575793
 C         -4.6899951490        1.8177971900       -1.7148419114
 C         -4.8388482733        3.2033970807       -1.0675450099
 C         -6.2473771724        3.4796597033       -0.5385469836
 H         -6.4005324918        4.5604646549       -0.5004583982
 H         -6.9708383694        3.0730338479       -1.2481492267
 C         -6.5389714843        2.9231718240        0.8540303480
 H         -5.9939138932        3.5077429405        1.5985352729
 H         -7.6048485693        3.0625810852        1.0490763708
 C         -6.1935698635        1.4461766685        1.0542584894
 H         -6.4755732623        0.8653388871        0.1768977357
 H         -6.7915731153        1.0736998072        1.8887084669
 C         -4.7157286051        1.2000805681        1.3934404923
 H         -4.2357840458        2.1417834852        1.6765158031
 H         -4.6434949788        0.5528228078        2.2732651273
 H         -4.1049436531        3.3226601310       -0.2718323411
 H         -4.6129914963        3.9519374099       -1.8287239810
 H         -4.2025580506        1.9131031624       -2.6877204102
 H         -5.6775076054        1.3890897939       -1.9025864742
 O         -3.0645590051        0.1406435687       -1.8478102071
 C         -2.2128485050       -0.8763190716       -1.4512797308
 O         -1.5518475835       -1.3853367863       -2.3746472654
 O         -2.9197851082       -0.7887823879        2.0934761588
 C         -1.2474317044       -2.3135798829        0.3600953042
 C          0.1853157795       -1.9777367531        0.0238995678
 C          1.0842645258       -2.9055780533       -0.4854348162
 C          2.3934558951       -2.5420653801       -0.7509969191
 C          2.8355732697       -1.2539185442       -0.5146747019
 C          1.9486672009       -0.3201216469        0.0053824630
 C          0.6404703847       -0.6890427309        0.2759694744
 H         -0.0474162298        0.0410693726        0.6865937773
 N          2.3890577062        0.9961578415        0.2428474534
 S          3.7224130094        1.1926431642        1.2485583427
 O          3.8156030278        0.1214971280        2.2138272158
 O          3.5989691040        2.5313113928        1.7834246024
 C          5.1139813137        1.1374607552        0.1399185895
 C          6.1090389807        0.1989122386        0.3312211245
 C          7.1894076278        0.1819510632       -0.5372614078
 C          7.2551347493        1.0990177901       -1.5750802436
 C          6.2482141880        2.0364542709       -1.7520898656
 C          5.1661511067        2.0598167296       -0.8867381425
 H          4.3654935807        2.7737627964       -0.9863327149
 H          6.3028141991        2.7481458161       -2.5601095256
 H          8.0962124727        1.0836002356       -2.2500859301
 H          7.9733226225       -0.5456311445       -0.4012819619
 H          6.0118367604       -0.4970884991        1.1490215172
 H          1.6479463341        1.6198847510        0.5288785419
 H          3.8514572919       -0.9648265250       -0.7288158496
 H          3.0784673968       -3.2732173672       -1.1521408446
 H          0.7591468483       -3.9145999695       -0.6781881599
 H         -1.3382669721       -2.3373717548        1.4570358383
 C         -1.7024759559       -3.6479637400       -0.1935916343
 C         -1.4540874826       -4.9112906083        0.5736065720
 C         -2.8417328187       -4.3549939670        0.4753906524
 H         -3.5638741387       -4.8687678907       -0.1411190242
 H         -3.2697294850       -3.8863105782        1.3497245569
 H         -1.2253767552       -5.8118525810        0.0239498618
 H         -0.9417916974       -4.8289699799        1.5203865808
 H         -1.6561111289       -3.6850481375       -1.2761755663
