  62
        -98.94436743
 C         -2.3662704931       -1.1366025052        0.2321163729
 C         -2.3909112185        0.1446827895       -0.3703545146
 C         -3.3988023546        1.0758910855        0.1543819565
 C         -4.1990577541        0.7009081272        1.1683467487
 C         -5.2519508553        1.5487360996        1.8291998843
 C         -6.5995373705        1.5614240392        1.0945720000
 C         -6.6208352008        2.3538342083       -0.2130669998
 H         -7.6672374956        2.4613110487       -0.5053798261
 H         -6.2278451759        3.3554859814       -0.0360907513
 C         -5.8518908941        1.6934997569       -1.3658804938
 H         -5.6798141157        0.6402690981       -1.1328747587
 H         -6.4579615793        1.7258270805       -2.2740280844
 C         -4.5114991922        2.3520326662       -1.6928583913
 H         -4.6804037300        3.3684179991       -2.0555671759
 H         -4.0360148133        1.7831091442       -2.4959474272
 C         -3.5334194463        2.4118564101       -0.5121245425
 H         -2.5484064942        2.6938003333       -0.8933411300
 H         -3.8563822596        3.1651153084        0.2063463486
 H         -6.9013270107        0.5297346041        0.9003473834
 H         -7.3347386790        2.0010297681        1.7724994546
 H         -5.4071761894        1.1287449502        2.8253100836
 H         -4.8846558401        2.5698654045        1.9365806778
 O         -4.1216488899       -0.5290420509        1.7421249613
 C         -3.2185138328       -1.4739057916        1.2867650195
 O         -3.2679821002       -2.5623807737        1.8935498588
 H          0.5429680454       -0.9012072253       -1.6894130215
 C          0.8547010707       -1.0827432651       -0.6733558065
 C          0.0081293881       -1.7470038553        0.1991122341
 C          0.4212460713       -1.9365816913        1.5152011349
 C          1.6533397854       -1.4774223671        1.9401300935
 C          2.4958560798       -0.8113149662        1.0661244501
 C          2.0845328709       -0.6006212812       -0.2423225780
 N          2.9253654496        0.0786282198       -1.1389074418
 S          3.7190346513        1.4622652344       -0.6212547757
 O          2.9817307456        2.1592858843        0.4073093250
 O          4.0005174879        2.2082871880       -1.8285498785
 C          5.2527640565        0.8396687759        0.0384542742
 C          5.9993073799       -0.0174272833       -0.7463474884
 C          7.1999972346       -0.5021007899       -0.2531115937
 C          7.6341544802       -0.1208951155        1.0077992902
 C          6.8757057364        0.7438135616        1.7817027764
 C          5.6727036314        1.2311008081        1.2945056109
 H          5.0469754326        1.9004411959        1.8635468706
 H          7.2148734937        1.0400250107        2.7613549302
 H          8.5688362563       -0.4999977664        1.3897531447
 H          7.7922658121       -1.1750748561       -0.8519566391
 H          5.6283262147       -0.2874659140       -1.7207817917
 H          2.5089513860        0.2236307153       -2.0476274450
 H          3.4523748460       -0.4393428560        1.3949371957
 H          1.9620457257       -1.6355844903        2.9623654477
 H         -0.2460869094       -2.4375669495        2.2030487976
 C         -1.3724516783       -2.2003769143       -0.2090351491
 H         -1.6189953118       -3.0999233247        0.3702994101
 C         -1.5041704121       -2.5201340447       -1.6834040747
 C         -0.8586935314       -3.7595705663       -2.2240623513
 C         -2.3505106068       -3.6811932754       -2.1067912839
 H         -2.9359082908       -3.5890720036       -3.0094606298
 H         -2.8342836718       -4.2560409644       -1.3305529827
 H         -0.4181302967       -3.7251099540       -3.2087229990
 H         -0.3278024554       -4.3880711222       -1.5252714872
 H         -1.5243158350       -1.6407014505       -2.3148795662
 O         -1.6225599125        0.5050805121       -1.3010980891
