  62
        -98.94498025
 C         -2.2152443197       -0.7829780504       -0.1345789699
 C         -3.0752013196       -0.5525220305        0.9724779402
 C         -3.9143201397        0.6475911595        0.9082955804
 C         -3.8101526099        1.4754639996       -0.1466176296
 C         -4.5744128100        2.7554625795       -0.3495328294
 C         -5.9732716400        2.5596908995       -0.9504984893
 C         -7.0111763999        1.9591841994       -0.0014490092
 H         -7.0260123698        2.5309692493        0.9269059709
 H         -7.9869078599        2.0821522393       -0.4756091691
 C         -6.7981520598        0.4713477894        0.3106333307
 H         -7.7498244397       -0.0580706407        0.2264142408
 H         -6.1235762598        0.0368655894       -0.4306942394
 C         -6.2451693196        0.1891899593        1.7075728806
 H         -6.0999654895       -0.8893857807        1.8072185905
 H         -6.9725536495        0.5021328992        2.4597722307
 C         -4.9068077196        0.8767559794        2.0080171505
 H         -5.0587600396        1.9444687793        2.1651433306
 H         -4.4949273395        0.4431291293        2.9224753104
 H         -6.3295328601        3.5416128095       -1.2704305592
 H         -5.8861177401        1.9319667395       -1.8403679093
 H         -4.6551484999        3.2874309695        0.5989475206
 H         -3.9843880801        3.3632164896       -1.0391850694
 O         -2.9530110100        1.2393448797       -1.1731827497
 C         -2.1503138799        0.1072440197       -1.2062001998
 O         -1.4483436500        0.0340720898       -2.2358797899
 O         -3.1395400795       -1.3212821805        1.9678724002
 C         -1.3555383797       -2.0363554603       -0.0816974000
 C          0.0600889504       -1.6830938403        0.3076395798
 C          0.5334596105       -1.9649989603        1.5842633498
 C          1.8198958605       -1.6130580103        1.9527555796
 C          2.6579781204       -0.9699297402        1.0594577596
 C          2.1884039702       -0.6686613701       -0.2120593503
 C          0.9033936802       -1.0357305802       -0.5841379002
 H          0.5390310301       -0.7790543701       -1.5674478102
 N          3.0260251001       -0.0000539800       -1.1243655604
 S          3.7569825501        1.4193522900       -0.6005187804
 O          2.9824022102        2.0672753599        0.4335517197
 O          4.0038332399        2.1901857701       -1.7997519404
 C          5.3170835602        0.8654370900        0.0574791194
 C          5.6707877603        1.1763078100        1.3557958194
 C          6.8932111004        0.7371690000        1.8406258492
 C          7.7360287403        0.0006758601        1.0224835491
 C          7.3671687602       -0.3006278098       -0.2802605809
 C          6.1470190501        0.1355755701       -0.7710388507
 H          5.8232369500       -0.0735598198       -1.7768889307
 H          8.0251918602       -0.8733995098       -0.9136684510
 H          8.6860295904       -0.3405683999        1.4023727790
 H          7.1815236405        0.9705888000        2.8529864392
 H          4.9805932103        1.7472405999        1.9565208995
 H          2.5890001100        0.1446290000       -2.0240544503
 H          3.6592664704       -0.6879909901        1.3412948095
 H          2.1740166406       -1.8405059003        2.9466343396
 H         -0.1236358294       -2.4474354904        2.2933517498
 H         -1.7832591995       -2.6380881604        0.7314041400
 C         -1.4052031198       -2.8518063002       -1.3584202401
 C         -0.9843949297       -4.2892644302       -1.3156821302
 C         -2.4296975197       -3.9362891603       -1.4947852700
 H         -2.8859132798       -4.0942217203       -2.4605878300
 H         -3.1014376596       -4.0967955804       -0.6641218200
 H         -0.4450069897       -4.6930418801       -2.1585224803
 H         -0.6753578596       -4.6893080703       -0.3619676003
 H         -1.1680400499       -2.2821542102       -2.2473851401
