  62
        -98.93863074
 C          1.8834431595        0.9882582997        0.3876914212
 C          2.2041994198       -0.1439301496       -0.3961703596
 C          3.5139506097       -0.7752525698       -0.1424619497
 C          4.3218114794       -0.2807571007        0.8129316910
 C          5.6717966592       -0.7434967111        1.3198053210
 C          6.5096510095       -1.7393437603        0.5217584705
 C          7.0340990500       -1.2108739491       -0.8130084089
 H          7.7869919499       -0.4446263793       -0.6117846179
 H          7.5285218702       -2.0332916687       -1.3347245194
 C          5.9859766103       -0.5949904783       -1.7364114287
 H          5.5585242701        0.2924996912       -1.2653312681
 H          6.4954857606       -0.2626374275       -2.6450049382
 C          4.8528176705       -1.5296931380       -2.1550460099
 H          5.2689469806       -2.4391730776       -2.5928833206
 H          4.2756757107       -1.0190593973       -2.9306004897
 C          3.8735438501       -1.9270876690       -1.0367564806
 H          4.2556908099       -2.7609256395       -0.4528115312
 H          2.9420712502       -2.2567765986       -1.5059889313
 H          5.9589895296       -2.6639981502        0.3753310794
 H          7.3759343893       -1.9833888509        1.1428284505
 H          6.2564242991        0.1682077088        1.4788796521
 H          5.4860698289       -1.1666271319        2.3134172406
 O          3.9589944191        0.7985697287        1.5651103218
 C          2.7620945291        1.4581512688        1.3686930920
 O          2.5947922588        2.4416414481        2.1168197728
 O          1.4470812501       -0.6382508289       -1.2756692204
 C          0.5944538495        1.7826480197        0.2409317415
 C         -0.5632664807        1.1058715891        0.9349005805
 C         -1.2411254511        1.7342555782        1.9725175708
 C         -2.3242859513        1.1229604076        2.5805665399
 C         -2.7532646811       -0.1247403721        2.1654286386
 C         -2.0769515507       -0.7625859311        1.1335577683
 C         -0.9966218405       -0.1457523205        0.5212284992
 H         -0.4741345202       -0.6469281798       -0.2799680610
 N         -2.5174726505       -2.0272363307        0.6919640470
 S         -4.1187458104       -2.0921663104        0.1989633564
 O         -4.9699990708       -2.2081196014        1.3567917460
 O         -4.1930433000       -3.1794464395       -0.7512175446
 C         -4.3959375301       -0.5236572197       -0.6046108123
 C         -5.2104736904        0.4202771898       -0.0138084618
 C         -5.3498856202        1.6580983803       -0.6209106507
 C         -4.6712408598        1.9304687414       -1.7982585902
 C         -3.8585878495        0.9699688719       -2.3807467408
 C         -3.7149691697       -0.2688118186       -1.7784997719
 H         -3.0918590295       -1.0382124982       -2.2062624923
 H         -3.3325241692        1.1812057528       -3.2980445804
 H         -4.7757266096        2.8967858618       -2.2659206494
 H         -5.9818875104        2.4068272499       -0.1713411103
 H         -5.7170727407        0.1675640590        0.9031269978
 H         -1.9164420303       -2.4243937801       -0.0165356831
 H         -3.5977523613       -0.6155435225        2.6218470679
 H         -2.8404609816        1.6232993669        3.3855299801
 H         -0.9064410012        2.7046836679        2.3089722518
 H          0.7792580793        2.7357300193        0.7538045824
 C          0.2379395200        2.0771189610       -1.2047099684
 C         -0.7027583799        3.2036058513       -1.5031728177
 C          0.7505479402        3.3285410216       -1.8480385171
 H          1.0428066406        3.2910160325       -2.8868000870
 H          1.3642912000        3.9844361311       -1.2474072863
 H         -1.4134757896        3.0809868119       -2.3052639381
 H         -1.0765651302        3.7765703305       -0.6684397273
 H          0.1763669103        1.1902374016       -1.8208265992
