  62
        -98.94759482
 C          0.8041771376        1.1596906638        0.5974105099
 C          1.2664115182        0.7610052171       -0.6799710190
 C          2.1910042457       -0.3791413935       -0.6914010183
 C          2.5026528506       -0.9994648325        0.4605139839
 C          3.4696682496       -2.1415603278        0.6151802998
 C          4.9346214080       -1.6947450823        0.7249945528
 C          5.5648800194       -1.2115916525       -0.5820984655
 H          6.6415444915       -1.1459145574       -0.4127202277
 H          5.4030382341       -1.9581849944       -1.3600725422
 C          5.0592721218        0.1548447013       -1.0655181993
 H          4.5720735285        0.6773547234       -0.2388782209
 H          5.9092042510        0.7682477174       -1.3735456891
 C          4.0934338985        0.0934994325       -2.2492310506
 H          3.7775308235        1.1129994591       -2.4842556116
 H          4.6104800119       -0.3084533157       -3.1233184094
 C          2.8333974178       -0.7452128930       -1.9950049881
 H          3.0768016061       -1.8065697670       -2.0159455604
 H          2.1141856924       -0.5320103032       -2.7892144177
 H          5.0062846791       -0.9066244143        1.4781580415
 H          5.5106752262       -2.5503999998        1.0849031483
 H          3.1989065593       -2.6611301396        1.5359656887
 H          3.3671144676       -2.8299456886       -0.2226450400
 O          1.9570416699       -0.6450735301        1.6553116347
 C          1.1193824879        0.4536941731        1.7569746922
 O          0.7231716445        0.6934741476        2.9171055337
 O          0.9400673086        1.3354409770       -1.7503033116
 C         -0.0673457654        2.3944747285        0.7286259007
 C         -1.2951743752        2.2776888246       -0.1403151137
 C         -1.7913552593        3.3253167573       -0.9054390234
 C         -2.9324798987        3.1523283709       -1.6692999367
 C         -3.6037911797        1.9440695987       -1.6794736865
 C         -3.1183485918        0.8907563101       -0.9115069716
 C         -1.9754078418        1.0668482458       -0.1496941660
 H         -1.6033676780        0.2515343714        0.4539157239
 N         -3.7528539378       -0.3567853281       -0.9271312336
 S         -3.6168270331       -1.4302588640        0.3368839357
 O         -4.6467145758       -2.4142774151        0.0755346168
 O         -3.6947046727       -0.7706809259        1.6199706871
 C         -2.0285400095       -2.2020257566        0.1181824249
 C         -1.2644892476       -2.4928058888        1.2304562444
 C         -0.0679818561       -3.1707702854        1.0640734570
 C          0.3426266605       -3.5404954034       -0.2067521204
 C         -0.4278585202       -3.2272244595       -1.3154566664
 C         -1.6291331185       -2.5566664811       -1.1547406958
 H         -2.2565299441       -2.3036127928       -1.9930638820
 H         -0.0985715296       -3.5078157583       -2.3028305564
 H          1.2670552092       -4.0809288910       -0.3310629072
 H          0.5357936244       -3.4023848733        1.9270384024
 H         -1.6122084868       -2.1746795565        2.2014148878
 H         -4.6394423883       -0.4026946835       -1.4054669980
 H         -4.4919377077        1.8101643140       -2.2776911825
 H         -3.3060213329        3.9720509237       -2.2641174404
 H         -1.2833268237        4.2756433711       -0.9083233193
 H         -0.3986291305        2.4266237227        1.7778019624
 C          0.7589728818        3.6319574576        0.4385131862
 C          0.4586897788        4.9268884144        1.1296981099
 C          1.6836610311        4.1467058081        1.4988448446
 H          2.6494013344        4.5280060929        1.2024987043
 H          1.6928690279        3.6214477926        2.4433053781
 H          0.5868261068        5.8477589421        0.5808631398
 H         -0.3616206977        4.9409285155        1.8315529688
 H          1.1070829999        3.6660050420       -0.5877060308
