  62
        -98.94442254
 C         -2.1083893451       -1.3909478401        0.0203225479
 C         -2.4208723438       -0.4295048936       -0.9712469168
 C         -3.7642422262        0.1600684714       -0.8904810373
 C         -4.6175685929       -0.2282086239        0.0733777349
 C         -6.0229928020        0.2705558596        0.2713079999
 C         -6.1136771644        1.5815960794        1.0641787328
 C         -5.6562377052        2.8308241564        0.3100373220
 H         -6.1705009800        2.8832708267       -0.6501549391
 H         -5.9747731107        3.6942212799        0.8975214100
 C         -4.1395199442        2.9180686169        0.0893424158
 H         -3.6310521690        2.2299039196        0.7689929197
 H         -3.7923329706        3.9238578223        0.3370599412
 C         -3.6889861965        2.6236960940       -1.3415384661
 H         -4.0846536851        3.3877764911       -2.0145255366
 H         -2.5977467202        2.6800380756       -1.3737839919
 C         -4.1105575120        1.2447474999       -1.8659131666
 H         -5.1785322042        1.2356364359       -2.0819854099
 H         -3.5641537935        1.0484464049       -2.7916462544
 H         -5.5302142703        1.4764733420        1.9818495163
 H         -7.1593502882        1.7183323752        1.3492655719
 H         -6.5084935167        0.3952644907       -0.6969838277
 H         -6.5520986442       -0.5055992219        0.8284341611
 O         -4.2887832607       -1.1674525521        0.9983788129
 C         -3.0346834605       -1.7514696807        1.0058004905
 O         -2.8661940514       -2.5794910566        1.9231319784
 H          0.2702449383        0.2099058895       -0.8631226997
 C          0.7055328099       -0.0533846851        0.0893290305
 C          0.2777057048       -1.2038832368        0.7368349736
 C          0.8366539478       -1.5202558019        1.9694874792
 C          1.7913930134       -0.6984158758        2.5432993686
 C          2.2095321717        0.4519561878        1.8992629986
 C          1.6574638890        0.7750158533        0.6658829960
 N          2.0796103569        1.9377659730       -0.0006870124
 S          3.7252848048        2.2261526665       -0.0816248288
 O          4.1671944566        2.8529917995        1.1399449234
 O          3.9219963652        2.9968009191       -1.2894529500
 C          4.4762828589        0.6142093485       -0.2341195351
 C          5.3812659486        0.1849224469        0.7149111365
 C          5.9290294892       -1.0822872512        0.5945023685
 C          5.5600928643       -1.8956130867       -0.4653273172
 C          4.6520889381       -1.4482127648       -1.4128881883
 C          4.1030413235       -0.1817098979       -1.2991039750
 H          3.3964127286        0.1942032646       -2.0217283941
 H          4.3663421162       -2.0819882163       -2.2369357525
 H          5.9818276752       -2.8841710717       -0.5553307609
 H          6.6369395879       -1.4316678493        1.3286837073
 H          5.6356998736        0.8484016112        1.5253823426
 H          1.6333259546        2.0757111205       -0.8956003847
 H          2.9435968896        1.1099104647        2.3357846539
 H          2.2131155827       -0.9548287718        3.5030683330
 H          0.5050477368       -2.4098490574        2.4849446127
 C         -0.7639674632       -2.0985532501        0.1078759386
 H         -0.9237845352       -2.9492004827        0.7832750694
 C         -0.2887111586       -2.6332692423       -1.2299855105
 C          0.7409441355       -3.7208146354       -1.2517779750
 C         -0.6749222879       -4.0206176344       -1.6414201360
 H         -0.8988546707       -4.2057334093       -2.6813573226
 H         -1.2836950270       -4.5937810783       -0.9570222094
 H          1.4920402719       -3.7024721191       -2.0261040383
 H          1.0951694528       -4.0932238261       -0.3026841548
 H         -0.2462779545       -1.8806765694       -2.0056761660
 O         -1.6406272221       -0.0636699507       -1.8915917989
