  62
        -98.93691704
 C         -2.3154175560       -0.9519608476        0.3742739846
 C         -2.5040940132        0.0852435114       -0.5680127408
 C         -3.4939808574        1.1223838683       -0.2158370759
 C         -4.1291689579        1.0549319823        0.9662116269
 C         -5.1888478381        1.9794936053        1.4983248142
 C         -6.5930838043        1.4459170766        1.1678718619
 C         -7.1403590793        1.8747255637       -0.1929068618
 H         -8.0725506074        1.3288822458       -0.3555799911
 H         -7.3849997435        2.9385779085       -0.1623540076
 C         -6.2083144087        1.6212683710       -1.3805383966
 H         -5.7519394555        0.6342264516       -1.2860201825
 H         -6.8162833776        1.6101069432       -2.2873087822
 C         -5.1152775774        2.6902075841       -1.5282377268
 H         -5.1169725996        3.0698298836       -2.5522643989
 H         -5.3550787131        3.5369454934       -0.8854919064
 C         -3.6859670287        2.2096928271       -1.2386895127
 H         -3.0712791268        3.0698666859       -0.9521929113
 H         -3.2464285452        1.8074451941       -2.1569799443
 H         -6.5585120048        0.3548698402        1.2240066379
 H         -7.2885313084        1.7902111537        1.9359008237
 H         -5.0505451038        2.9867857247        1.1172024920
 H         -5.0694396489        1.9943438739        2.5836800014
 O         -3.9071593693        0.0483187378        1.8546759207
 C         -3.0192315899       -0.9718119211        1.5836884865
 O         -2.9414358447       -1.8331720347        2.4819807920
 O         -1.8901988352        0.1690960253       -1.6674421155
 C         -1.3582445549       -2.1164102192        0.1676471672
 C          0.0702515968       -1.7243541986        0.4640605816
 C          0.7820943628       -2.3487600632        1.4816117804
 C          2.0957054979       -1.9980699793        1.7391645641
 C          2.7234721897       -1.0158178919        0.9941340968
 C          2.0205468632       -0.3846352803       -0.0237617938
 C          0.7064367182       -0.7461145823       -0.2864130779
 H          0.1623292604       -0.2501262257       -1.0765769916
 N          2.6317202827        0.6378915926       -0.7676637006
 S          4.1765623827        0.3963639583       -1.3706634191
 O          4.2967236403        1.3113351275       -2.4846362434
 O          4.4256090639       -0.9976794570       -1.6569466285
 C          5.2410244777        0.9469701031       -0.0531906282
 C          6.2631989619        0.1313810108        0.3912085922
 C          7.0896024749        0.5853939913        1.4074528053
 C          6.8807885875        1.8407267998        1.9575253668
 C          5.8511540434        2.6487309237        1.4982526513
 C          5.0225732838        2.2014845359        0.4816189090
 H          4.2131566094        2.7990227001        0.0963277424
 H          5.6912032275        3.6240351971        1.9291018505
 H          7.5236403545        2.1918236400        2.7492077680
 H          7.8905755427       -0.0411053481        1.7657041886
 H          6.3831014203       -0.8398990436       -0.0617061666
 H          2.0257538978        1.0443867768       -1.4658364816
 H          3.7456976652       -0.7377582248        1.1924389349
 H          2.6366341048       -2.4920155236        2.5318655716
 H          0.2944271595       -3.1058217737        2.0784431565
 H         -1.6551682137       -2.8721047957        0.9071203019
 C         -1.4666409543       -2.7355195864       -1.2131963142
 C         -1.0203445251       -4.1514532161       -1.4107681460
 C         -2.4794236303       -3.8114548385       -1.4572731014
 H         -2.9871902135       -3.8344423506       -2.4098417837
 H         -3.0994554035       -4.1117397479       -0.6248274124
 H         -0.5210266484       -4.4099666449       -2.3320494429
 H         -0.6522260118       -4.6850037941       -0.5475239137
 H         -1.2850845950       -2.0336948820       -2.0164513529
