  62
        -98.94535436
 C          2.6406209551        1.0832294060        0.2890188337
 C          2.5776809038        0.3216631131       -0.9034297692
 C          3.2180857419       -1.0008311394       -0.8521708712
 C          3.8148646101       -1.4025617422        0.2847283071
 C          4.4513655062       -2.7457593266        0.4922220728
 C          3.4444967360       -3.7534474919        1.0645737936
 C          2.1142472200       -3.7957627498        0.3113791126
 H          1.4948754939       -4.5619779115        0.7834848321
 H          1.5923562888       -2.8439654088        0.4422665911
 C          2.2428312043       -4.0956835844       -1.1885934163
 H          3.2180518651       -4.5383368187       -1.3955621371
 H          1.4849337938       -4.8326052799       -1.4624642753
 C          2.0318782805       -2.8836097867       -2.0981801965
 H          1.0958309315       -2.3837050707       -1.8312283934
 H          1.9248372041       -3.2448520643       -3.1246117646
 C          3.1597221416       -1.8433321971       -2.0947507289
 H          4.1166233839       -2.3383855109       -2.2723832212
 H          2.9710937257       -1.1487900421       -2.9185113084
 H          3.2399011011       -3.4875773506        2.1043327483
 H          3.9013331578       -4.7445004028        1.0510512957
 H          5.2763577107       -2.6306701841        1.1971738412
 H          4.8430650893       -3.1066417564       -0.4565258208
 O          3.8597991540       -0.6400445794        1.4076360158
 C          3.2557100592        0.6069120241        1.4455698824
 O          3.3296323630        1.1812655465        2.5516628945
 O          2.0169941663        0.7224339760       -1.9559301232
 C          1.9646168017        2.4421555812        0.3539451637
 C          0.4896663265        2.2696676037        0.0800982736
 C         -0.2165038243        3.0114707928       -0.8564294887
 C         -1.5610095417        2.7629917272       -1.0759443591
 C         -2.2290009208        1.7817274602       -0.3671943662
 C         -1.5340854292        1.0409043496        0.5803705675
 C         -0.1903160741        1.2942587051        0.8000148838
 H          0.3524382578        0.7113099421        1.5358060054
 N         -2.2075258752        0.0426000446        1.3133350365
 S         -2.9251814076       -1.1889711973        0.4177140125
 O         -2.9946204413       -2.3197386906        1.3184169803
 O         -2.2374884599       -1.4054144177       -0.8340369394
 C         -4.5712924349       -0.5799076602        0.1216833517
 C         -5.0377679698       -0.4509011416       -1.1716413696
 C         -6.3235553282        0.0263635226       -1.3747842133
 C         -7.1145210933        0.3638709430       -0.2871917663
 C         -6.6313269464        0.2259705180        1.0057506997
 C         -5.3477504502       -0.2517477456        1.2159206449
 H         -4.9340262843       -0.3771438723        2.2025626471
 H         -7.2493107354        0.4897150361        1.8487910803
 H         -8.1135580003        0.7370254071       -0.4481904530
 H         -6.7007822174        0.1342287064       -2.3790088938
 H         -4.3829711100       -0.7187000547       -1.9855926829
 H         -1.6400669303       -0.3597810543        2.0463486133
 H         -3.2735522349        1.5812438449       -0.5414898999
 H         -2.0956547638        3.3409427750       -1.8141680652
 H          0.2882751566        3.7743819139       -1.4256235777
 H          2.0814823335        2.7913005078        1.3903784083
 C          2.6487018879        3.4243048492       -0.5724529828
 C          2.6013605877        4.8925954929       -0.2773725115
 C          3.8791790539        4.1319663682       -0.0934212175
 H          4.6847399642        4.2956077731       -0.7932738982
 H          4.2121036126        3.9209989450        0.9126792247
 H          2.5326928834        5.5830338029       -1.1042913297
 H          2.0682443595        5.2074071997        0.6069021769
 H          2.6257784950        3.1055197759       -1.6079414910
