  62
        -98.94301880
 C          1.9858727582        0.1724607810       -0.2663226618
 C          2.8214863983       -0.7253488693        0.4427616205
 C          4.1626578078       -0.2232882529        0.7734835447
 C          4.5151108888        1.0320350951        0.4461955948
 C          5.8330587795        1.6924777986        0.7469948679
 C          6.9350305347        1.3814422383       -0.2751918565
 C          7.5009901502       -0.0377735972       -0.2103949455
 H          8.4035224364       -0.0506004675       -0.8247723116
 H          7.8015182455       -0.2611359365        0.8137402716
 C          6.5432526481       -1.1251224565       -0.7172663155
 H          7.0827083461       -1.8044092145       -1.3812052878
 H          5.7491854728       -0.6638516907       -1.3090651457
 C          5.9096763905       -1.9753862375        0.3838803733
 H          6.6861088259       -2.5460128744        0.8981917534
 H          5.2234505273       -2.6854049446       -0.0843279243
 C          5.1217725999       -1.1723770843        1.4269937641
 H          4.5382346678       -1.8723215123        2.0297001275
 H          5.8054238058       -0.6322077278        2.0813292444
 H          7.7521727943        2.0843674735       -0.0969425442
 H          6.5453557436        1.5732874386       -1.2777113853
 H          6.1682977106        1.4053443340        1.7440526110
 H          5.6494005059        2.7691072149        0.7384653251
 O          3.6714861481        1.8786826915       -0.2024478021
 C          2.4105225043        1.4642563676       -0.5935505091
 O          1.7647353609        2.3290219528       -1.2212516601
 O          2.4900319154       -1.8866158534        0.7975881324
 C          0.5848792255       -0.1846097157       -0.7374960826
 C         -0.4358518753       -0.0328162116        0.3649475870
 C         -0.3418729867       -0.7538812938        1.5513984953
 C         -1.2937632249       -0.5989578964        2.5418658753
 C         -2.3681563163        0.2550341262        2.3609980741
 C         -2.4752919763        0.9737629325        1.1773193198
 C         -1.5055144155        0.8337226860        0.1933748923
 H         -1.5976049025        1.4096403212       -0.7152463131
 N         -3.5642164495        1.8395215669        0.9502608233
 S         -4.5317990162        1.5371625938       -0.3832670756
 O         -3.7750903826        1.7249226888       -1.5936432583
 O         -5.6898042119        2.3843703661       -0.2073820234
 C         -4.9993426573       -0.1752624936       -0.2010373183
 C         -4.1263751866       -1.1597413995       -0.6202222206
 C         -4.4597567421       -2.4865460844       -0.3978888986
 C         -5.6522566702       -2.8049095810        0.2335227989
 C         -6.5200097950       -1.8044967877        0.6448720690
 C         -6.1895224396       -0.4759055661        0.4325383762
 H         -6.8342452215        0.3343105864        0.7328006470
 H         -7.4483679607       -2.0550515474        1.1324431023
 H         -5.9062646698       -3.8391210968        0.4043529597
 H         -3.7829892548       -3.2632256953       -0.7158081388
 H         -3.2077571949       -0.8795866869       -1.1091308439
 H         -4.1479596792        1.9772189073        1.7638591896
 H         -3.1154875297        0.3694859205        3.1317834968
 H         -1.2044425890       -1.1572903699        3.4612433337
 H          0.4895554795       -1.4273280683        1.6908609397
 H          0.3406826509        0.5516677327       -1.5158961944
 C          0.4961353416       -1.5697732994       -1.3500453933
 C         -0.5609197876       -1.8410526413       -2.3759816760
 C          0.8790587296       -1.7589910749       -2.7851436424
 H          1.3910910419       -2.6667987352       -3.0665454511
 H          1.2034956374       -0.8868236954       -3.3349523505
 H         -1.0405281511       -2.8077477610       -2.3816299392
 H         -1.2095042652       -1.0238653355       -2.6582970781
 H          0.7492760882       -2.3630138153       -0.6593899081
