  62
        -98.94379081
 C         -1.4545094569        0.9181337020        0.4863864431
 C         -2.5246135897        1.1058048492       -0.4255423216
 C         -3.4283817134       -0.0329899080       -0.6245495065
 C         -3.1811744626       -1.1844010537        0.0257616637
 C         -4.0399168790       -2.4132202762       -0.0478382994
 C         -5.1122416438       -2.4110641102        1.0506888526
 C         -5.8962097204       -1.1020085315        1.1449766561
 H         -6.6428817017       -1.2261566937        1.9321985372
 H         -5.2205159802       -0.3053140998        1.4641844342
 C         -6.5912034063       -0.6831914861       -0.1580575847
 H         -7.6087807015       -0.3626867783        0.0748915242
 H         -6.6667543486       -1.5394607380       -0.8292300224
 C         -5.9158031991        0.4767745360       -0.8920034517
 H         -5.7524484284        1.3046037636       -0.1975142313
 H         -6.5983362447        0.8310634353       -1.6690498208
 C         -4.5804278668        0.1494657745       -1.5723073493
 H         -4.6968472774       -0.7299672614       -2.2095356615
 H         -4.3126481518        0.9995596719       -2.2068197278
 H         -5.8001683816       -3.2373492646        0.8624060285
 H         -4.6230507792       -2.5880796749        2.0113249212
 H         -4.5087866819       -2.4621779468       -1.0289616636
 H         -3.3982577575       -3.2870327794        0.0800602035
 O         -2.1344864431       -1.3407695735        0.8712548000
 C         -1.2378254667       -0.3064555369        1.1205633049
 O         -0.3345355474       -0.6182497503        1.9173363655
 O         -2.7166006436        2.1899345265       -1.0412658668
 C         -0.5228942779        2.1017328603        0.6752806713
 C          0.5534779139        2.1130851142       -0.3830245854
 C          0.9607062118        3.3038174589       -0.9739951657
 C          1.9491363258        3.3037069096       -1.9422129262
 C          2.5412763630        2.1207688967       -2.3447198600
 C          2.1278561265        0.9205942091       -1.7737057715
 C          1.1497207651        0.9283687201       -0.7898099884
 H          0.8280980107       -0.0059737029       -0.3606283762
 N          2.6709068901       -0.2896267918       -2.2110306436
 S          2.6535912026       -1.7141413782       -1.3472067088
 O          3.4649607641       -2.6020712996       -2.1540640339
 O          1.3000510175       -2.1434571779       -1.1016842536
 C          3.5269138628       -1.3640680181        0.1673327688
 C          4.8978379862       -1.2076753518        0.0712054737
 C          5.6266571771       -0.9282357014        1.2141491350
 C          4.9752923990       -0.8139351711        2.4337711821
 C          3.6022118353       -0.9777395721        2.5130196751
 C          2.8630405988       -1.2515975540        1.3708176989
 H          1.7907915727       -1.3652478424        1.4163782680
 H          3.0888919573       -0.8922742732        3.4572234978
 H          5.5401875539       -0.5984194286        3.3269226510
 H          6.6957002815       -0.8032772321        1.1532745245
 H          5.3669502599       -1.3279280255       -0.8916531307
 H          3.4464168960       -0.2242088400       -2.8513177642
 H          3.3028113230        2.1185895296       -3.1090885570
 H          2.2580081120        4.2340050295       -2.3939571331
 H          0.4825269542        4.2288282560       -0.6876224547
 H         -1.1534798543        2.9892925379        0.5019805715
 C          0.0436520834        2.2134884057        2.0835184231
 C          1.4698678771        1.9090186626        2.4179104961
 C          0.9856557221        3.3257274281        2.4392375354
 H          0.8630652698        3.8164565938        3.3927853962
 H          1.3153660443        3.9769090090        1.6447843279
 H          1.6669303686        1.4104452505        3.3537168811
 H          2.1243161226        1.6003640580        1.6171623180
 H         -0.6918490738        1.9422880982        2.8338107673
