  62
        -98.94037360
 C         -2.6309948574       -1.3136158392       -0.1492895781
 C         -2.4075496083       -0.1367062592       -0.9034252703
 C         -3.5776904106        0.7339098320       -1.0896910804
 C         -4.7622657081        0.3700123452       -0.5653665509
 C         -6.0200187000        1.1856064894       -0.6368862592
 C         -6.1507581693        2.1114697773        0.5804427806
 C         -4.8899568863        2.9240592656        0.8759637476
 H         -5.1084049977        3.5637423958        1.7338524952
 H         -4.0887351450        2.2454546190        1.1785731935
 C         -4.4031636258        3.7887583711       -0.2952629017
 H         -5.2082089413        3.9190206218       -1.0193841492
 H         -4.1449727154        4.7794464393        0.0847854988
 C         -3.1621885110        3.2496039327       -1.0095537241
 H         -2.3819460213        3.0286877869       -0.2758483029
 H         -2.7785947147        4.0365548808       -1.6646211513
 C         -3.3787968587        2.0005941134       -1.8734169628
 H         -4.2129298492        2.1667926058       -2.5581657023
 H         -2.4717423436        1.8467539834       -2.4653160352
 H         -6.9901639124        2.7882191137        0.4112145363
 H         -6.3774407232        1.5009037694        1.4575159963
 H         -6.0152675882        1.7717402734       -1.5536527944
 H         -6.8713933838        0.5032415869       -0.6560343959
 O         -4.9398556908       -0.7757133317        0.1407843364
 C         -3.8805630726       -1.6344902197        0.3814964790
 O         -4.1731740568       -2.6343655442        1.0679006558
 H          1.1649647472       -1.8184466191       -0.5313251349
 C          0.8863950959       -1.3893128496        0.4181929667
 C         -0.4065578260       -1.5378290231        0.8897816234
 C         -0.7392095642       -0.9624199246        2.1140390143
 C          0.1982823874       -0.2541727169        2.8396696684
 C          1.4897082757       -0.1044410933        2.3634012437
 C          1.8314281072       -0.6723544423        1.1447365337
 N          3.1456576021       -0.5520342840        0.6566771606
 S          3.9417388475        0.9244400532        0.8521534245
 O          4.4156815208        1.0102166067        2.2114210615
 O          3.1047167846        2.0155194586        0.4058436097
 C          5.3211845486        0.6985830499       -0.2529967578
 C          6.4565076976        0.0655220737        0.2159788128
 C          7.5172509176       -0.1366561449       -0.6525789027
 C          7.4251463918        0.2938717056       -1.9678001799
 C          6.2794431230        0.9287284609       -2.4236971164
 C          5.2143181279        1.1331164243       -1.5606320640
 H          4.3080432362        1.6296987350       -1.8696688910
 H          6.2114217635        1.2646350740       -3.4459761003
 H          8.2520885092        0.1362447148       -2.6420680442
 H          8.4104984443       -0.6279684956       -0.3020597566
 H          6.4853335366       -0.2436572313        1.2476548160
 H          3.2201388774       -0.8700935039       -0.3003495469
 H          2.2274314933        0.4560429788        2.9143360242
 H         -0.0761078850        0.1905709983        3.7849219435
 H         -1.7504270932       -1.0726790325        2.4833787965
 C         -1.4835212223       -2.2702445814        0.1263448834
 H         -1.8913655859       -3.0527005069        0.7818926854
 C         -1.0084565609       -2.9110144434       -1.1602487860
 C         -0.2915076699       -4.2262987697       -1.1226574470
 C         -1.6935563207       -4.1513282128       -1.6463536976
 H         -1.8565491414       -4.2675087936       -2.7073307843
 H         -2.4925401452       -4.5478309238       -1.0368627060
 H         -0.1352040552       -4.6811751504       -0.1563240772
 H          0.5081372218       -4.3996665866       -1.8268575205
 H         -0.7101791901       -2.1831416208       -1.9058651071
 O         -1.2928873820        0.1716487909       -1.4018606124
