  62
        -98.94441622
 C         -2.6066748103       -1.0928771952        0.2014381656
 C         -2.5948749877       -0.1795876796       -0.8807661870
 C         -3.1918932441        1.1359561405       -0.6158492455
 C         -3.7231100121        1.4084333020        0.5888569765
 C         -4.3734205766        2.6998963269        1.0035265014
 C         -3.3808499470        3.7714830523        1.4749415282
 C         -2.5459484558        4.4175854980        0.3685029929
 H         -3.2051067257        4.7707301076       -0.4252538146
 H         -2.0598583336        5.2931937126        0.8030698646
 C         -1.4661709579        3.5034970374       -0.2276839595
 H         -1.2745070307        2.6640852135        0.4457049420
 H         -0.5232803182        4.0494549257       -0.3119503942
 C         -1.7915374117        2.9560517306       -1.6172609289
 H         -0.9729642121        2.2937601365       -1.9142117296
 H         -1.8329442889        3.7789941558       -2.3349333446
 C         -3.1069756811        2.1697474509       -1.6980918736
 H         -3.9545627841        2.8522144677       -1.6409796173
 H         -3.1375247597        1.6510590036       -2.6595030393
 H         -2.7145291081        3.3282293649        2.2186325226
 H         -3.9582855256        4.5559507666        1.9693901087
 H         -5.0398142666        2.4590030350        1.8344596080
 H         -4.9705508085        3.0918549835        0.1799157368
 O         -3.7430376056        0.4961266022        1.5953874984
 C         -3.1639011581       -0.7502897955        1.4385164029
 O         -3.2193014011       -1.4675413726        2.4573369326
 O         -2.1200604543       -0.4217929975       -2.0240316370
 C         -1.9688806142       -2.4750180533        0.1409962228
 C         -0.4782628730       -2.3273073136        0.3312453878
 C          0.1459604151       -2.7703199078        1.4914219003
 C          1.4980695430       -2.5522437337        1.6924173861
 C          2.2505309456       -1.8730734129        0.7502777833
 C          1.6330156926       -1.4228395959       -0.4084567580
 C          0.2870615558       -1.6698029631       -0.6217014360
 H         -0.1861195630       -1.2982366709       -1.5186591572
 N          2.3801141300       -0.6695274709       -1.3458820798
 S          2.7618061195        0.8781808945       -0.7896481498
 O          1.7959756057        1.3426389430        0.1800862967
 O          2.9328115936        1.6917899559       -1.9739892789
 C          4.3446409691        0.6436053345       -0.0090072929
 C          5.4128478922        0.2716292696       -0.8018381980
 C          6.6489497210        0.0722037177       -0.2083159430
 C          6.7950303466        0.2480536418        1.1598713241
 C          5.7132034829        0.6239441797        1.9414721285
 C          4.4736349822        0.8243648140        1.3538169210
 H          3.6024753776        1.1121196749        1.9206259426
 H          5.8282729852        0.7603289664        3.0048001099
 H          7.7578367399        0.0917367635        1.6201882614
 H          7.4927214645       -0.2193083906       -0.8126583758
 H          5.2548579490        0.1521760838       -1.8606637302
 H          1.8966292725       -0.5797721306       -2.2301298927
 H          3.2998312695       -1.6821307594        0.9078135137
 H          1.9678502821       -2.9031360551        2.5985974011
 H         -0.4440900938       -3.2655719527        2.2490628693
 H         -2.3665257843       -3.0244261486        1.0044865367
 C         -2.3119201598       -3.2461485288       -1.1173036879
 C         -2.1757507428       -4.7380361162       -1.1112852693
 C         -3.5359461518       -4.1093153020       -1.1330046630
 H         -4.1169574913       -4.1607974317       -2.0414781152
 H         -4.1311701531       -4.1478544755       -0.2321336548
 H         -1.8203727848       -5.2256463112       -2.0059453743
 H         -1.8497382688       -5.2062760574       -0.1949046850
 H         -2.0671738013       -2.7198634726       -2.0300327898
