  62
        -98.93749051
 C         -2.5303270479       -0.7488038007        0.4262360974
 C         -2.5848816854        0.1937332536       -0.6285896097
 C         -2.5473326361        1.6102136557       -0.2354894878
 C         -2.4621068959        1.9371447513        1.0655791776
 C         -2.2233927341        3.3189102317        1.6019571223
 C         -0.7283504789        3.6679719453        1.4414559569
 C         -0.4469623412        4.8225652399        0.4796421195
 H         -0.7044892223        5.7657413390        0.9671261048
 H          0.6286502193        4.8274144020        0.2891081370
 C         -1.1855113809        4.7690634586       -0.8610122599
 H         -2.2077602542        5.1293607149       -0.7322039849
 H         -0.6861079641        5.4754360885       -1.5277342307
 C         -1.2319952708        3.3975402840       -1.5472660315
 H         -1.1121091092        3.5508499849       -2.6225059532
 H         -0.3959465297        2.7735650177       -1.2245855774
 C         -2.5522024369        2.6285454231       -1.3410153076
 H         -2.7707188568        2.0614310494       -2.2506459453
 H         -3.3706620047        3.3369915867       -1.1869124956
 H         -0.3075864925        3.9239388107        2.4153978236
 H         -0.1995438199        2.7761189591        1.0945233544
 H         -2.5031433423        3.3168861942        2.6556291840
 H         -2.8454952427        4.0381409964        1.0742918695
 O         -2.4807927237        1.0094940773        2.0559052118
 C         -2.4792394923       -0.3415831964        1.7633587108
 O         -2.4413172946       -1.0806691763        2.7676626043
 O         -2.6375367528       -0.1054594285       -1.8543902438
 C         -2.3514627996       -2.2482645268        0.2167222677
 C         -0.8645246288       -2.4814027765        0.0818012603
 C         -0.1569044762       -3.2658267316        0.9842207612
 C          1.2246974856       -3.3398279285        0.9232764469
 C          1.9301881188       -2.6037803894       -0.0132612072
 C          1.2280613115       -1.8236545048       -0.9212314861
 C         -0.1545757026       -1.7962200955       -0.8943081182
 H         -0.6829294754       -1.1779228130       -1.6048166175
 N          1.9410074360       -0.9660060886       -1.8053562114
 S          2.2520664235        0.5111294896       -1.0405734547
 O          1.1556197821        0.9185666396       -0.1888832490
 O          2.6192431271        1.4339132823       -2.0923824913
 C          3.6779011588        0.1201178591       -0.0533555549
 C          4.8898167966       -0.0540342583       -0.6929149667
 C          5.9995391575       -0.4010055155        0.0607048664
 C          5.8771610446       -0.5704920105        1.4320705751
 C          4.6530574912       -0.3919563658        2.0585737537
 C          3.5390224291       -0.0441346611        1.3103364983
 H          2.5658333176        0.0999008166        1.7533311605
 H          4.5584966608       -0.5251294214        3.1242903827
 H          6.7409554221       -0.8433011763        2.0175278695
 H          6.9532834776       -0.5405397292       -0.4220906533
 H          4.9359591568        0.0920959017       -1.7591973333
 H          1.4124436745       -0.7673118306       -2.6457057593
 H          3.0076014221       -2.6215753670       -0.0420604234
 H          1.7594436356       -3.9530877494        1.6321117575
 H         -0.6952437303       -3.7930780307        1.7580544430
 H         -2.6875018894       -2.7295943381        1.1448132603
 C         -3.1315889046       -2.8345940631       -0.9398898857
 C         -3.4118154402       -4.3066592468       -0.9476386125
 C         -4.5246480642       -3.3326716458       -0.7055913573
 H         -5.2603631292       -3.1813955242       -1.4808958153
 H         -4.9225761945       -3.2499914744        0.2954032393
 H         -3.3826980360       -4.8296656900       -1.8910400206
 H         -3.0578197652       -4.8883783895       -0.1100738187
 H         -2.9310258452       -2.3533347161       -1.8874040686
