  62
        -98.93315059
 C          1.9005001908        1.6261156296        0.3195694113
 C          1.6382334406        0.4726497998       -0.4563409090
 C          2.5229979501       -0.6903480206       -0.2279309990
 C          3.5281478700       -0.5920084011        0.6591406412
 C          4.5450527695       -1.6297643815        1.0641117213
 C          5.1445329594       -2.4990316315       -0.0514348388
 C          4.6516689889       -3.9475992214       -0.0291984191
 H          5.3992937888       -4.5775641716       -0.5162957791
 H          4.5806493686       -4.2737015215        1.0107693808
 C          3.3152811089       -4.1950474208       -0.7272034394
 H          3.0160954185       -5.2237205107       -0.5128083596
 H          3.4513161792       -4.1146887407       -1.8077547294
 C          2.1799530492       -3.2575052804       -0.3123617395
 H          2.1967051190       -3.0954208806        0.7655603805
 H          1.2342689091       -3.7533180201       -0.5434953498
 C          2.2010472598       -1.9091414403       -1.0483089593
 H          2.8854344200       -1.9588308004       -1.8994535091
 H          1.2116629500       -1.7022564999       -1.4669583694
 H          6.2268367194       -2.5127618420        0.0876159514
 H          4.9510503898       -2.0454134313       -1.0219247187
 H          4.0967237791       -2.2686228115        1.8301328911
 H          5.3386746196       -1.0658571719        1.5602686215
 O          3.7441435402        0.5435167887        1.3849205715
 C          2.9313420806        1.6560488390        1.2600802115
 O          3.2192590308        2.5910819488        2.0337013217
 O          0.7042474807        0.3911684102       -1.2934775592
 C          1.0270138013        2.8651557499        0.2302295913
 C         -0.4350518489        2.4824838604        0.2096779909
 C         -1.3686055685        3.0559059109       -0.6439997592
 C         -2.6985316886        2.6738032813       -0.5913536895
 C         -3.1247346091        1.7002181914        0.2920774603
 C         -2.1941441095        1.1021521909        1.1329385303
 C         -0.8714249794        1.5135786904        1.1051570607
 H         -0.1554312797        1.0525277000        1.7752795108
 N         -2.5987442101        0.0753063009        2.0007079901
 S         -3.6995653104       -1.0550522786        1.4434440797
 O         -5.0375929202       -0.5571482782        1.6535285195
 O         -3.3714888009       -2.2749283089        2.1499873096
 C         -3.4127515501       -1.2531033284       -0.3075748903
 C         -2.1376572501       -1.5330736688       -0.7557693201
 C         -1.9270146799       -1.6864392687       -2.1160687301
 C         -2.9875816697       -1.5641891982       -2.9999135503
 C         -4.2643354997       -1.2930755178       -2.5334114505
 C         -4.4806695199       -1.1336586679       -1.1746156705
 H         -5.4541301999       -0.9126696076       -0.7673846206
 H         -5.0883895795       -1.1998183574       -3.2223135606
 H         -2.8144847995       -1.6796173780       -4.0582163202
 H         -0.9311724099       -1.8809703490       -2.4799480199
 H         -1.3224016903       -1.6145477092       -0.0543011299
 H         -1.8396443003       -0.3680995795        2.4959848502
 H         -4.1568394093        1.3932689617        0.3449373300
 H         -3.4127409383        3.1354639217       -1.2556580296
 H         -1.0570909381        3.7954204909       -1.3624463690
 H          1.2117693913        3.4067482797        1.1736026514
 C          1.4133434518        3.8153373999       -0.8958072485
 C          2.7597256620        3.7450637896       -1.5511567882
 C          1.5341090620        3.3465289801       -2.3138528185
 H          1.1881141324        3.9980890104       -3.1028024485
 H          1.3634810716        2.2985347602       -2.5015384387
 H          3.2504193423        4.6725757194       -1.8065578880
 H          3.4391482216        2.9696862493       -1.2274067782
 H          1.0147726622        4.8132778700       -0.7425677484
