  62
        -98.93740135
 C         -2.4235374518       -1.1760326193       -0.0082131050
 C         -3.3512505290       -0.5933232249        0.8927124832
 C         -4.2833620076        0.4156402188        0.3562651031
 C         -4.2240076333        0.7125013090       -0.9548513940
 C         -5.0342737155        1.7235150175       -1.7211733566
 C         -4.5660209993        3.1667183581       -1.4723862458
 C         -4.2643366977        3.5028415626       -0.0141327659
 H         -3.5013698957        2.8182659836        0.3613788497
 H         -3.8375316834        4.5089490966        0.0125690914
 C         -5.4704718287        3.4832636784        0.9218873375
 H         -6.2112580845        4.2028367406        0.5659833538
 H         -5.1248327826        3.8202677105        1.9024995055
 C         -6.1581904092        2.1282975664        1.1013559336
 H         -6.7821846533        1.8889011392        0.2445017859
 H         -6.8308638716        2.2168161914        1.9595113457
 C         -5.2149991448        0.9689478554        1.4073416209
 H         -4.5809742517        1.2374392382        2.2599516266
 H         -5.8118497698        0.1153766470        1.7509390038
 H         -5.3278757824        3.8474740929       -1.8557905824
 H         -3.6500725313        3.3274049826       -2.0463360850
 H         -6.0885987727        1.6114123210       -1.4865551339
 H         -4.9028963954        1.4929505799       -2.7807417607
 O         -3.3283093108        0.1158409343       -1.7897142289
 C         -2.4079885129       -0.8203429348       -1.3558724901
 O         -1.6611487691       -1.2367456071       -2.2663370037
 O         -3.4019662006       -0.9030244842        2.1134054066
 C         -1.4616560117       -2.1979085400        0.5741334390
 C         -0.1092770795       -1.5842635021        0.8513259617
 C          0.3961847185       -1.5281126722        2.1448631947
 C          1.6375995983       -0.9685393391        2.3917624922
 C          2.3954959083       -0.4477761259        1.3583320317
 C          1.8997568300       -0.4992395707        0.0618724399
 C          0.6597579933       -1.0724622523       -0.1840434479
 H          0.2770945861       -1.1063767670       -1.1935535144
 N          2.6396684799        0.0566352238       -0.9939461374
 S          4.2771347236       -0.2790192431       -1.1154356993
 O          4.6054373762       -0.0699583315       -2.5085100126
 O          4.5968001232       -1.5774853912       -0.5685473091
 C          5.0455677674        0.9990434822       -0.1415894330
 C          5.9434870946        0.6632368381        0.8526399104
 C          6.5358447496        1.6760853925        1.5910072961
 C          6.2226107790        2.9996489510        1.3224770949
 C          5.3211373973        3.3204265391        0.3183109200
 C          4.7264434409        2.3127739096       -0.4240267349
 H          4.0233137300        2.5202034897       -1.2135248580
 H          5.0794032386        4.3507744550        0.1123515545
 H          6.6833566591        3.7862652574        1.8988831692
 H          7.2370076835        1.4287287002        2.3717653017
 H          6.1521411817       -0.3798521401        1.0296921141
 H          2.1815403057       -0.0184265729       -1.8906319895
 H          3.3608774524       -0.0069113038        1.5454199431
 H          2.0178749096       -0.9319351493        3.4011714803
 H         -0.1969395015       -1.9162007618        2.9599839698
 H         -1.9008207755       -2.4847516430        1.5390598413
 C         -1.3208377113       -3.4455056846       -0.2761555499
 C         -0.8439773853       -4.7122052350        0.3660079275
 C         -2.2717489793       -4.5847106671       -0.0716671153
 H         -2.6010818651       -5.1413872243       -0.9361550583
 H         -3.0300981536       -4.4716119842        0.6893767543
 H         -0.1876488127       -5.3585183413       -0.1964051849
 H         -0.6346385855       -4.6879074789        1.4246881895
 H         -1.0001482557       -3.2434979428       -1.2899991531
