  62
        -98.94477157
 C         -1.1677315812       -1.7717116567       -0.6750102241
 C         -1.2120828905       -0.4472515566       -1.1794356726
 C         -2.5014596965        0.2506487884       -1.0318275463
 C         -3.5420732708       -0.3821069754       -0.4635613074
 C         -4.9032828955        0.2126920189       -0.2465601742
 C         -5.0232872671        0.8610955943        1.1384425589
 C         -3.8766044473        1.8142359746        1.4753813289
 H         -2.9488380600        1.2458960286        1.5813934679
 H         -4.0926024856        2.2524773320        2.4525866401
 C         -3.6594243429        2.9349079366        0.4495626852
 H         -3.5047159890        3.8728192949        0.9874652182
 H         -4.5516312249        3.0560222268       -0.1666444863
 C         -2.4370418285        2.7313302135       -0.4479777594
 H         -1.5782602738        2.4771150444        0.1796956895
 H         -2.2201825725        3.6817335368       -0.9451311437
 C         -2.5791199010        1.6625483668       -1.5404316483
 H         -1.7391291699        1.7760254089       -2.2322223638
 H         -3.5065316613        1.8245408525       -2.0946968022
 H         -5.0437022007        0.0704162412        1.8920347962
 H         -5.9713625276        1.4004960565        1.1857120964
 H         -5.0974697545        0.9508416012       -1.0223535315
 H         -5.6410896948       -0.5878340519       -0.3267835480
 O         -3.4629985656       -1.6531020853        0.0082275402
 C         -2.2768388268       -2.3627274386       -0.0650588994
 O         -2.3389707746       -3.5090069848        0.4262380993
 H          0.9996045325       -0.2707294783        0.1464278349
 C          1.3252728626       -1.0774628133        0.7812987987
 C          0.9442547179       -2.3774148379        0.4790519637
 C          1.3589254309       -3.4080026774        1.3139584130
 C          2.1276912589       -3.1361306733        2.4324657465
 C          2.4960023504       -1.8382054820        2.7373905316
 C          2.0906026023       -0.8005887811        1.9036838776
 N          2.4828721386        0.5176672175        2.1549121208
 S          1.6771659219        1.8250294355        1.4997173304
 O          2.2137928099        2.9599096687        2.2254800966
 O          0.2429107981        1.6692339896        1.5780448099
 C          2.2416877498        1.9087887063       -0.1862821476
 C          3.4706082774        1.3748457934       -0.5186690647
 C          3.9113925108        1.4752667942       -1.8280229021
 C          3.1247324570        2.1103491155       -2.7761489362
 C          1.8993732874        2.6510245851       -2.4233037230
 C          1.4516547372        2.5515140999       -1.1162784004
 H          0.4973500986        2.9467454737       -0.8094646819
 H          1.2846600008        3.1416819111       -3.1608298137
 H          3.4671272642        2.1819607152       -3.7966820417
 H          4.8636400214        1.0521198950       -2.1054264200
 H          4.0571603411        0.8807720071        0.2383718273
 H          2.9042171964        0.7047750157        3.0512491642
 H          3.0886499353       -1.6255836629        3.6138886692
 H          2.4382736277       -3.9430793037        3.0787325630
 H          1.0576375718       -4.4215786721        1.0933839308
 C          0.0792741124       -2.6425053071       -0.7255104980
 H         -0.2901165719       -3.6775497637       -0.6468717237
 C          0.8324945429       -2.5317612105       -2.0444442375
 C          2.1614916572       -1.8612754448       -2.1962162500
 C          2.0676161752       -3.3539217000       -2.2690905928
 H          2.2002556805       -3.8396093359       -3.2238906590
 H          2.4439057466       -3.9184138490       -1.4290313530
 H          2.6154944244       -1.4178344136       -1.3245140283
 H          2.3337600506       -1.3013262094       -3.1023788494
 H          0.1519424259       -2.4381076220       -2.8846805306
 O         -0.2488523429        0.1328101906       -1.7407668642
