  62
        -98.94126126
 C          1.5976711079        0.5675704864        0.9467406988
 C          2.8390548864        1.0798998152        0.4975066454
 C          3.9337817435        0.1022259299        0.3875268561
 C          3.7086642585       -1.1879653452        0.6921645364
 C          4.7169163320       -2.2916760211        0.5603210595
 C          4.6415838524       -2.9513223274       -0.8238572056
 C          4.6431692879       -1.9559957489       -1.9842266482
 H          4.6183638082       -2.5355261612       -2.9096629248
 H          3.7240270664       -1.3662945355       -1.9501325619
 C          5.8511871035       -1.0091369072       -2.0070531301
 H          6.6509492625       -1.4133609429       -1.3853195947
 H          6.2325313110       -0.9524144034       -3.0288488333
 C          5.5426431170        0.4231114870       -1.5669689576
 H          4.6811211286        0.8003041737       -2.1238073167
 H          6.3998882711        1.0503602780       -1.8260091952
 C          5.2701251327        0.6162237948       -0.0699601754
 H          6.0762306609        0.1654061246        0.5123330801
 H          5.2621354917        1.6918182755        0.1290778416
 H          5.4869508167       -3.6341234672       -0.9269382653
 H          3.7216342994       -3.5378423658       -0.8781379689
 H          5.7136022346       -1.8882478313        0.7280710150
 H          4.5059715609       -3.0430348413        1.3230952639
 O          2.5026055700       -1.6455706245        1.1139551144
 C          1.4240168973       -0.7885649984        1.2436124945
 O          0.3770524907       -1.3422189874        1.6336675803
 H         -1.9400259257        0.3161451418        0.2814049147
 C         -1.5218227115        0.9647727448       -0.4728502895
 C         -0.3269421676        1.6226884706       -0.2194343055
 C          0.2170044897        2.4334850271       -1.2100907462
 C         -0.4344375244        2.5848676398       -2.4203325084
 C         -1.6397373634        1.9482258681       -2.6600832997
 C         -2.1866793853        1.1283883386       -1.6797256626
 N         -3.3907516667        0.4486890614       -1.9027474280
 S         -4.4659311803        0.1651833227       -0.6546974417
 O         -5.7273803603       -0.0780702142       -1.3217756496
 O         -4.4572075651        1.2395347376        0.3105529575
 C         -3.9031034928       -1.3503321603        0.0880491855
 C         -3.6992381342       -1.4116863091        1.4516569606
 C         -3.2756207173       -2.6048332255        2.0140060402
 C         -3.0669182153       -3.7109804797        1.2060019998
 C         -3.2809355949       -3.6348380396       -0.1618719758
 C         -3.7039098367       -2.4444695104       -0.7298667179
 H         -3.8819246316       -2.3472958379       -1.7880036910
 H         -3.1155282943       -4.4985145833       -0.7858612869
 H         -2.7318513220       -4.6367965088        1.6463633460
 H         -3.1025987581       -2.6641833396        3.0765114343
 H         -3.8663052709       -0.5254484825        2.0441193538
 H         -3.8570869917        0.6687333549       -2.7702364461
 H         -2.1522717793        2.0788949689       -3.6011797564
 H         -0.0038964872        3.2145400143       -3.1844864815
 H          1.1600604721        2.9252335940       -1.0289427977
 C          0.3540842263        1.4270123304        1.1139544050
 H         -0.3270030098        0.8404528459        1.7455962432
 C          0.6146765411        2.7518949055        1.8026748059
 C         -0.5515229869        3.5051543346        2.3659721550
 C          0.4357295670        2.8529357884        3.2859910471
 H          1.1131190504        3.4812831492        3.8446643443
 H          0.1284690203        1.9629712761        3.8161502259
 H         -0.5530382051        4.5819858838        2.2934187320
 H         -1.5304571983        3.0588036386        2.2661129341
 H          1.4185620515        3.3235162322        1.3593333105
 O          3.0504714297        2.2850780969        0.1993194751
