  62
        -98.94227318
 C          0.6411965801        1.4408334395        0.5394840704
 C          1.1212491004        0.8704277198       -0.6607179297
 C          2.1737950800       -0.1571316405       -0.5320635997
 C          2.5856992495       -0.5114422111        0.6993674803
 C          3.7100787091       -1.4417678116        1.0686272003
 C          5.0931205193       -0.7980416920        0.8656323110
 C          5.2560568600       -0.0052847415       -0.4291209386
 H          4.4946653103        0.7759188787       -0.4697367286
 H          6.2282522902        0.4935231082       -0.3913474381
 C          5.2051698002       -0.8312070110       -1.7123579489
 H          6.0099822800       -1.5696492813       -1.6941910689
 H          5.3997029007       -0.1494998408       -2.5442716986
 C          3.8870129701       -1.5570023805       -1.9872715596
 H          3.7947944496       -2.4394603007       -1.3613162400
 H          3.9199847803       -1.9098970801       -3.0219509298
 C          2.6404887203       -0.6857567802       -1.8661568097
 H          2.7551263608        0.1926234000       -2.5110148094
 H          1.7860613903       -1.2369487998       -2.2767481802
 H          5.8488625391       -1.5839587522        0.9109700510
 H          5.2708337993       -0.1116861723        1.6972608014
 H          3.6314389190       -2.3687645014        0.5104312800
 H          3.5926600087       -1.6754199620        2.1289717502
 O          2.0376588893        0.0155078386        1.8330648303
 C          1.0697167396        0.9983009489        1.7887510104
 O          0.6753854493        1.3907415786        2.9074416204
 O          0.7113236709        1.2178760104       -1.7992628797
 C         -0.3704321295        2.5693091598        0.4893166105
 C         -1.5830966294        2.1810223205       -0.3201369301
 C         -2.2242312488        3.0554167810       -1.1886285199
 C         -3.3513785987        2.6506694516       -1.8820858905
 C         -3.8647485191        1.3777879717       -1.7203418611
 C         -3.2318935197        0.4954811512       -0.8504827613
 C         -2.1033159698        0.9032916806       -0.1588114607
 H         -1.6197040502        0.2209843002        0.5253456892
 N         -3.7086661901       -0.8099270087       -0.6957155819
 S         -3.3037916409       -1.7826059393        0.5877142679
 O         -4.2168291012       -2.9013796690        0.4781846771
 O         -3.3343270511       -1.0727692298        1.8456255381
 C         -1.6604877209       -2.3590044897        0.2240158482
 C         -1.3761167006       -2.7766734793       -1.0606216819
 C         -0.1258484707       -3.3086161195       -1.3294558617
 C          0.8093516390       -3.4230531002       -0.3129523614
 C          0.5118674387       -2.9927791006        0.9700964687
 C         -0.7346558813       -2.4529875403        1.2430182685
 H         -1.0014094315       -2.0965214206        2.2264773085
 H          1.2393028584       -3.0757285911        1.7614794489
 H          1.7748402689       -3.8547728104       -0.5226471912
 H          0.1133362896       -3.6392168992       -2.3275295717
 H         -2.1306234003       -2.6819058188       -1.8236461921
 H         -4.6016432501       -1.0209880683       -1.1126226823
 H         -4.7430317390        1.0627594722       -2.2622902515
 H         -3.8386501883        3.3379930520       -2.5568892604
 H         -1.8409607385        4.0532383210       -1.3250626594
 H         -0.6973952998        2.7317273995        1.5280260604
 C          0.3038914710        3.8317826998       -0.0119177988
 C         -0.1337478687        5.1769373398        0.4822909916
 C          1.1773535710        4.6048395892        0.9282539618
 H          2.0889551412        5.0405443191        0.5475751522
 H          1.2594895005        4.2362891388        1.9408309217
 H         -0.1191715282        6.0097722500       -0.2046534881
 H         -0.9406602889        5.2086342597        1.1989524113
 H          0.6313797214        3.7443104201       -1.0418165787
