  62
        -98.94260795
 C         -1.4448826254       -1.0750587013        0.0079268728
 C         -2.7847523963       -1.5390059996        0.0241885737
 C         -3.7904370025       -0.6007469712        0.5401743135
 C         -3.3915557905        0.5948875466        1.0100991754
 C         -4.3120840399        1.6716790665        1.5054254173
 C         -4.7150331329        2.6217884397        0.3688358528
 C         -5.2020958505        1.9070026661       -0.8917419494
 H         -5.4860608815        2.6762924346       -1.6131532632
 H         -4.3713275401        1.3485548521       -1.3293316944
 C         -6.3865903589        0.9569245658       -0.6658680247
 H         -6.8753061840        1.1921262449        0.2803062747
 H         -7.1207736813        1.1176370806       -1.4582054372
 C         -6.0229952613       -0.5289467972       -0.6912590001
 H         -5.4546808325       -0.7517346326       -1.5981534318
 H         -6.9507700024       -1.1053916335       -0.7387766659
 C         -5.2267805695       -1.0415215477        0.5155269389
 H         -5.7344575235       -0.7560680681        1.4391342026
 H         -5.2042086026       -2.1339130648        0.4592894612
 H         -5.4982814155        3.2872985100        0.7362631382
 H         -3.8481888164        3.2308113312        0.1027192207
 H         -5.1978881328        1.2137130752        1.9413269405
 H         -3.7916333357        2.2415665720        2.2767410997
 O         -2.0913614246        0.9774531016        1.0452099440
 C         -1.0810008858        0.1621759561        0.5438945718
 O          0.0558494794        0.6525769663        0.6477860688
 O         -3.1238161468       -2.6861748434       -0.3731528527
 C         -0.3866545463       -2.0016163776       -0.5634511384
 C          0.8178263779       -2.0397300948        0.3406968520
 C          0.6861940664       -2.6014266788        1.6081792423
 C          1.7555952174       -2.6322912033        2.4814218637
 C          2.9775132466       -2.0985211990        2.1113155014
 C          3.1196332639       -1.5385655628        0.8475408944
 C          2.0463767245       -1.5189951034       -0.0322221007
 H          2.1815970632       -1.0735364112       -1.0027908801
 N          4.3520627435       -1.0095705036        0.4429288561
 S          4.4624958675        0.2504778149       -0.6421701134
 O          4.1557017676       -0.2122386407       -1.9734595499
 O          5.8104214526        0.7482858012       -0.4538023725
 C          3.3015691725        1.5050465088       -0.1367889996
 C          2.4847270056        2.0846523505       -1.0833421691
 C          1.6212777482        3.0955064007       -0.6965870564
 C          1.5888971909        3.5057366831        0.6253582789
 C          2.4173835579        2.9141112987        1.5648617197
 C          3.2853252760        1.9057774886        1.1830569107
 H          3.9411031063        1.4306600433        1.8947572461
 H          2.3826059912        3.2306379010        2.5952315521
 H          0.9073280447        4.2857835093        0.9269590643
 H          0.9697429065        3.5512362657       -1.4258914802
 H          2.5319209219        1.7278399563       -2.0999656283
 H          5.0565831089       -0.9530251018        1.1627349698
 H          3.8138613020       -2.1150262612        2.7934152741
 H          1.6377232439       -3.0692419957        3.4616494842
 H         -0.2729130917       -3.0056499331        1.9027073035
 H         -0.8565327779       -2.9994216381       -0.5498090942
 C         -0.0317002350       -1.7080114485       -2.0134479006
 C         -1.0537988308       -1.1620773826       -2.9636138128
 C          0.1041558812       -0.3118402313       -2.5394281024
 H          0.8885932588       -0.1146449043       -3.2562405383
 H         -0.0739133112        0.5008834381       -1.8523749433
 H         -1.0735190789       -1.5437727819       -3.9733470058
 H         -2.0307984876       -0.9295408014       -2.5654519303
 H          0.6557147379       -2.4449015731       -2.4188641892
