  62
        -98.94668547
 C          1.1934808196        1.1109330800       -0.1954555193
 C          2.0900730494        0.8860877495        0.8832139407
 C          2.9058764398       -0.3295942802        0.8099065701
 C          2.7570787902       -1.1666099096       -0.2321958704
 C          3.5240821905       -2.4408985593       -0.4625373510
 C          4.8963920806       -2.2313339285       -1.1182626907
 C          5.9682289703       -1.6248376388       -0.2116713501
 H          6.0241894703       -2.1948193794        0.7162904196
 H          6.9251267904       -1.7437342482       -0.7239326600
 C          5.7620320598       -0.1374009991        0.1069158508
 H          6.7082061297        0.3952043713       -0.0131859887
 H          5.0593272599        0.2949477412       -0.6091551491
 C          5.2606422795        0.1442246000        1.5233107409
 H          6.0181512594       -0.1619974703        2.2482589408
 H          5.1131221192        1.2222804499        1.6263826915
 C          3.9384958996       -0.5507606806        1.8736618202
 H          4.1041754399       -1.6166335806        2.0283209596
 H          3.5596424093       -0.1159126413        2.8017904804
 H          4.7693013606       -1.6025957580       -2.0025015903
 H          5.2486085509       -3.2092904782       -1.4545276312
 H          3.6525908805       -2.9712734098        0.4817149487
 H          2.9181265508       -3.0539446690       -1.1328322115
 O          1.8505966303       -0.9455232892       -1.2176323505
 C          1.0548634600        0.1892951206       -1.2337196299
 O          0.2882208002        0.2367609610       -2.2172375900
 H         -1.5849212102        1.0331903700       -1.3931155199
 C         -1.9027643904        1.4182107093       -0.4357373697
 C         -1.0099037108        2.1500359591        0.3346727709
 C         -1.4271400111        2.6063256982        1.5795383411
 C         -2.7063108212        2.3407716576        2.0384851707
 C         -3.5919577308        1.6062047079        1.2697380501
 C         -3.1773091605        1.1365256287        0.0305967499
 N         -4.0534987701        0.3288929790       -0.7346711608
 S         -4.2735894098       -1.2108886715       -0.1118142218
 O         -4.9883537295       -1.9520985810       -1.1252896724
 O         -4.9209998801       -1.0956963524        1.1701327682
 C         -2.6342176497       -1.8851769312        0.0977631181
 C         -2.1336963793       -2.7372195505       -0.8654250223
 C         -0.8534533992       -3.2435013502       -0.7136594024
 C         -0.0929765995       -2.8753755407        0.3846451180
 C         -0.6002008599       -1.9993752814        1.3312733384
 C         -1.8856764300       -1.5019892617        1.1931562685
 H         -2.3152539603       -0.8331726522        1.9211861288
 H          0.0038611498       -1.6973451818        2.1726503887
 H          0.9032156506       -3.2700459805        0.5054461079
 H         -0.4504561789       -3.9164127497       -1.4534851427
 H         -2.7585992591       -2.9975316901       -1.7048262626
 H         -3.7523544899        0.2421143396       -1.6965001908
 H         -4.5817930408        1.3639308374        1.6205603297
 H         -3.0153781914        2.7043459469        3.0067245908
 H         -0.7337731114        3.1589096980        2.1967171516
 C          0.3945672792        2.4041842297       -0.1541881687
 H          0.9003127489        3.0272462494        0.5955415318
 C          0.3944650693        3.1489078905       -1.4748569282
 C          0.0701938489        4.6116637305       -1.4827219674
 C          1.4713685691        4.1527094710       -1.7514710174
 H          1.8577542093        4.2294444017       -2.7568048173
 H          2.2161192489        4.3124863307       -0.9853561172
 H         -0.5087520610        5.0065160708       -2.3033858373
 H         -0.1350728114        5.0831948098       -0.5335972872
 H          0.0493220996        2.5524132710       -2.3091246587
 O          2.2088618190        1.6746282290        1.8577842812
