  62
        -98.93215787
 C          2.1558236854        0.9487326291        0.6416621021
 C          3.2904949771        0.9222974663       -0.2051743545
 C          4.2870320145       -0.1213993873        0.0839411442
 C          4.0870912696       -0.9808517269        1.0977633561
 C          5.0197484860       -2.0706186604        1.5570910379
 C          5.2713563306       -3.2200242289        0.5620572567
 C          6.5144994698       -3.0354554252       -0.3171951060
 H          7.2096119101       -2.3684534725        0.1940340276
 H          7.0196798281       -3.9983271521       -0.4164293162
 C          6.2574617431       -2.5172532795       -1.7354164866
 H          7.2144130796       -2.1965253357       -2.1525910859
 H          5.8878230400       -3.3385316283       -2.3535912705
 C          5.2558918203       -1.3683708791       -1.8540959047
 H          4.2398471142       -1.7513814066       -1.7312995324
 H          5.3135740131       -0.9689641012       -2.8685016787
 C          5.4654059423       -0.2266209102       -0.8406932024
 H          6.3828977363       -0.3774256994       -0.2742194075
 H          5.5359384835        0.7280706742       -1.3652683999
 H          5.4053802073       -4.1260876713        1.1551989691
 H          4.3847595420       -3.3669277648       -0.0543523582
 H          5.9741732435       -1.6187106399        1.8369394262
 H          4.5649917271       -2.4767225649        2.4630085895
 O          2.9794963648       -0.9249166337        1.8888990853
 C          1.9979081925        0.0267612178        1.6812015451
 O          1.0485667095       -0.0389977961        2.4900199367
 H         -1.5222941986        1.1177753042        0.7328580597
 C         -1.2076124615        1.1561689039       -0.2996959446
 C          0.0839054231        1.5546155465       -0.6149717579
 C          0.4734914417        1.5736937065       -1.9503797060
 C         -0.4141176680        1.1969809410       -2.9412411157
 C         -1.6997503752        0.7963330423       -2.6236661629
 C         -2.1004061636        0.7774763123       -1.2926235610
 N         -3.4166999854        0.4175170053       -0.9523837288
 S         -3.6929763972       -0.4433137430        0.4738853732
 O         -3.6434883157        0.4715793661        1.5860919395
 O         -2.8203124906       -1.5949960167        0.5369927637
 C         -5.3797208358       -0.9547337105        0.2000258777
 C         -5.6451351147       -2.2428938651       -0.2237964121
 C         -6.9599054957       -2.6134576682       -0.4603318687
 C         -7.9807076590       -1.6937904344       -0.2732867855
 C         -7.6988347549       -0.4043266457        0.1533614044
 C         -6.3870510302       -0.0280471252        0.3934246117
 H         -6.1202979670        0.9584112508        0.7348508351
 H         -8.4951860319        0.3072287972        0.3004491682
 H         -9.0026615401       -1.9846692417       -0.4583564685
 H         -7.1820356284       -3.6160918442       -0.7884469911
 H         -4.8197209742       -2.9254102719       -0.3483943060
 H         -3.9117361261       -0.0045587769       -1.7270683926
 H         -2.3903793746        0.5021354035       -3.3995706124
 H         -0.0994485211        1.2106556542       -3.9738928537
 H          1.4818835007        1.8651712302       -2.1991629255
 C          1.0283388088        1.9587740917        0.4924884339
 H          0.4661145729        1.9115038619        1.4356568041
 C          1.5190663554        3.3810112292        0.3002581622
 C          0.5843598419        4.5115695831        0.6028324772
 C          1.7526695849        4.2427103644        1.5024122146
 H          2.5851667759        4.9299632369        1.4892494944
 H          1.5599994900        3.8084886400        2.4732166279
 H         -0.4017469342        4.2592816015        0.9642040198
 H          0.6122835798        5.3862127435       -0.0284737846
 H          2.1991939519        3.4949974568       -0.5327942641
 O          3.4939668923        1.7242866526       -1.1540295566
