  62
        -98.93559132
 C          1.8462586032        0.7271245347       -0.0293995221
 C          2.6009949039        0.2538902726        1.0713807138
 C          3.7172767677       -0.6609499236        0.7745940082
 C          3.9355743276       -1.0402968017       -0.4980650217
 C          4.9606084861       -1.9803362594       -1.0975701508
 C          6.1674906708       -2.4415056372       -0.2846333810
 C          7.1803413269       -1.3425111431        0.0360005711
 H          7.9381068093       -1.7600516093        0.7025470650
 H          7.6786481314       -1.0491297590       -0.8914425956
 C          6.6044850101       -0.0779343896        0.6683626708
 H          7.4301648697        0.6200867123        0.8311168386
 H          5.9142048159        0.3991121137       -0.0305462640
 C          5.8969255362       -0.2801153048        2.0067925355
 H          5.6779335091        0.7097742820        2.4164540518
 H          6.5664849527       -0.7884742720        2.7032510205
 C          4.5715918284       -1.0587404401        1.9437883854
 H          4.7432294597       -2.1325745131        1.9473361168
 H          3.9943216678       -0.8164096370        2.8409963154
 H          6.6795465137       -3.1950705413       -0.8892651709
 H          5.8416407119       -2.9379981655        0.6247328108
 H          5.3109327711       -1.4934241127       -2.0133950464
 H          4.3990791101       -2.8654158032       -1.4171076673
 O          3.1355759117       -0.6151561398       -1.5186499096
 C          2.0849686714        0.2717401176       -1.3256797889
 O          1.4668590609        0.5514076488       -2.3683382085
 O          2.3454188210        0.5734784214        2.2636564737
 C          0.7095141419        1.6915072772        0.2568813056
 C         -0.5473895363        1.2384226915       -0.4425094634
 C         -1.2428810692        2.0120043906       -1.3612882913
 C         -2.3847721397        1.5196759014       -1.9700446916
 C         -2.8602461648        0.2563521601       -1.6740737084
 C         -2.1781244738       -0.5221914429       -0.7467744612
 C         -1.0398357974       -0.0243462822       -0.1326839375
 H         -0.5052485116       -0.6354531977        0.5846919008
 N         -2.6571611165       -1.8044770185       -0.4314680659
 S         -4.3011028277       -2.0029399910       -0.1973482863
 O         -4.4207848158       -3.1417146556        0.6863537419
 O         -4.9650779087       -2.1246828565       -1.4712546205
 C         -4.8408456231       -0.5143165180        0.6250155142
 C         -5.7685704528        0.3105049886        0.0225769574
 C         -6.1476590104        1.4768040778        0.6679907022
 C         -5.5919257180        1.7980208622        1.8963925552
 C         -4.6636019419        0.9567923879        2.4909192740
 C         -4.2826325181       -0.2112469615        1.8512039891
 H         -3.5678614802       -0.8892669481        2.2897393601
 H         -4.2326667481        1.2074258809        3.4470053548
 H         -5.8834191742        2.7084682923        2.3957206307
 H         -6.8708453723        2.1314907179        0.2091605729
 H         -6.1735755369        0.0235701189       -0.9341403985
 H         -2.1203944262       -2.2860542687        0.2739844686
 H         -3.7345026525       -0.1479793223       -2.1578002796
 H         -2.9076801289        2.1266787021       -2.6931257956
 H         -0.8767532342        2.9905104306       -1.6236234089
 H          0.5426516427        1.5948903905        1.3430329128
 C          1.0517153380        3.1521820427        0.0043069570
 C          2.4669486578        3.6388109885        0.0853819562
 C          1.7593888320        3.6099339330       -1.2345044065
 H          1.4630383145        4.5505451262       -1.6755751471
 H          2.0405237398        2.8593892846       -1.9562718477
 H          2.6554961693        4.5950656936        0.5499363755
 H          3.2397649296        2.9058514760        0.2670401603
 H          0.2942858921        3.8189050544        0.4046319151
