  62
        -98.94261287
 C          1.4505047489        1.1566474353        0.0902658214
 C          2.6728845224        1.1731930473        0.8136516505
 C          3.4247983568       -0.0874269858        0.8594735354
 C          2.9020495256       -1.1830912760        0.2803436290
 C          3.5747186286       -2.5228605601        0.2134954109
 C          4.4176815621       -2.6567767050       -1.0625241791
 C          5.3505509833       -1.4721808293       -1.3143254677
 H          4.7508453888       -0.5819991117       -1.5177463708
 H          5.9169844918       -1.6908511252       -2.2222432770
 C          6.3234287149       -1.1744341732       -0.1647894209
 H          7.3166422871       -0.9980341275       -0.5832486793
 H          6.3988830892       -2.0422757582        0.4914180265
 C          5.9652047146        0.0591506166        0.6663622310
 H          5.8007587037        0.9123676454        0.0030810263
 H          6.8214365255        0.3011273122        1.3017109431
 C          4.7426744447       -0.0846142604        1.5816309065
 H          4.7198417593        0.7851357528        2.2448479854
 H          4.8477851111       -0.9811552681        2.1960415748
 H          3.7425608807       -2.7471041869       -1.9165942097
 H          5.0041514101       -3.5748618582       -0.9947514404
 H          4.2036212332       -2.6530759376        1.0919828068
 H          2.8047887093       -3.2957864556        0.2104485608
 O          1.7091360307       -1.1772479738       -0.3605712420
 C          0.9589122353       -0.0142533460       -0.4935877209
 O         -0.0874124369       -0.1784577122       -1.1449049160
 H         -1.5767189156        1.8337370078       -1.3803711148
 C         -1.7613694750        1.8293414732       -0.3178851297
 C         -0.7414051546        2.1685827230        0.5574802213
 C         -0.9975464645        2.1467258505        1.9244991629
 C         -2.2468414065        1.7960602490        2.4027503266
 C         -3.2520568231        1.4221946147        1.5281981602
 C         -2.9963925497        1.4188530771        0.1633752097
 N         -3.9908164424        0.9713832969       -0.7306104950
 S         -4.6277645663       -0.5515153700       -0.4322851639
 O         -5.2099127665       -0.9711965471       -1.6878589316
 O         -5.5395156064       -0.4627119887        0.6827144479
 C         -3.2490526763       -1.5981601683       -0.0035517259
 C         -2.9356105448       -1.8009667819        1.3253270123
 C         -1.8264840432       -2.5681503820        1.6402707741
 C         -1.0582545356       -3.1207403520        0.6275617611
 C         -1.3934563290       -2.9176821133       -0.7010403327
 C         -2.4954418471       -2.1433305251       -1.0221500827
 H         -2.7811391326       -1.9583149514       -2.0449706975
 H         -0.7897815148       -3.3425697050       -1.4865731157
 H         -0.1896467637       -3.7109328796        0.8758229649
 H         -1.5613569165       -2.7278829632        2.6734829373
 H         -3.5624392678       -1.3643727767        2.0850969889
 H         -3.6908580934        1.0195472322       -1.6944880162
 H         -4.2245569860        1.1184913843        1.8806989440
 H         -2.4368432279        1.7988206216        3.4653362824
 H         -0.2012010067        2.3994548071        2.6106608981
 C          0.6517154058        2.4505704457        0.0603644406
 H          1.1563928294        3.0977271933        0.7950397517
 C          0.6706648560        3.2018314570       -1.2621896875
 C          1.9515753080        3.3451617973       -2.0276552692
 C          0.8254048149        2.5373347433       -2.5956396189
 H          0.2752694962        2.9458591704       -3.4312665334
 H          0.9222021552        1.4638585569       -2.6233286460
 H          2.8141820987        2.8178723643       -1.6465739212
 H          2.1849157114        4.2983933449       -2.4774078989
 H          0.0258236281        4.0753504107       -1.2318608668
 O          3.1156408758        2.1991292444        1.3959867609
