  62
        -98.94437391
 C          2.3625832388        1.1292465297        0.2401903799
 C          2.3827462387       -0.1541429323       -0.3579904213
 C          3.3914459348       -1.0847854866        0.1662827028
 C          4.1936178322       -0.7081888955        1.1781239517
 C          5.2531456728       -1.5522442152        1.8329105675
 C          6.5969160024       -1.5531262887        1.0911344977
 C          6.6177766750       -2.3443542303       -0.2172842417
 H          7.6635444683       -2.4430651493       -0.5149532567
 H          6.2337909244       -3.3492899152       -0.0390847282
 C          5.8381077734       -1.6898125851       -1.3662152104
 H          6.4394350114       -1.7193114502       -2.2776277979
 H          5.6608603666       -0.6373698035       -1.1333625642
 C          4.5000933545       -2.3568866373       -1.6858004926
 H          4.0176915111       -1.7919578569       -2.4875693053
 H          4.6733687813       -3.3728470580       -2.0476979370
 C          3.5275484096       -2.4204181504       -0.5006280104
 H          2.5418248424       -2.7059836487       -0.8773160507
 H          3.8565476513       -3.1724769441        0.2163343809
 H          6.8886261505       -0.5186540035        0.8961411616
 H          7.3397430796       -1.9868218246        1.7644854007
 H          4.8927917107       -2.5759405742        1.9385023272
 H          5.4102834911       -1.1343595038        2.8295916634
 O          4.1150334569        0.5211615255        1.7529630220
 C          3.2129740930        1.4663029419        1.2962733343
 O          3.2614284555        2.5546922763        1.9033684508
 O          1.6110659460       -0.5155469536       -1.2855619160
 C          1.3747294259        2.1954968266       -0.2082462566
 C         -0.0090514998        1.7476915560        0.1945142643
 C         -0.4178983532        1.9233365953        1.5139501472
 C         -1.6517754161        1.4667449001        1.9361362731
 C         -2.5005707458        0.8175961105        1.0555154611
 C         -2.0940535800        0.6215486502       -0.2566680957
 C         -0.8620762227        1.1007906977       -0.6846281491
 H         -0.5544778831        0.9306508591       -1.7039534777
 N         -2.9424896514       -0.0416626366       -1.1584967750
 S         -3.7224405370       -1.4390735915       -0.6560947239
 O         -2.9670402838       -2.1516118324        0.3483548050
 O         -4.0178863532       -2.1635153129       -1.8732665378
 C         -5.2490430730       -0.8371406415        0.0386053326
 C         -6.0093917969        0.0363574242       -0.7141999672
 C         -7.2038748441        0.5054542349       -0.1915445709
 C         -7.6182541345        0.0928217331        1.0661149886
 C         -6.8460828069       -0.7879636470        1.8076823243
 C         -5.6493015850       -1.2598874533        1.2910073595
 H         -5.0128719559       -1.9400600487        1.8347434251
 H         -7.1695350028       -1.1083507025        2.7850569507
 H         -8.5480856677        0.4599081844        1.4710092416
 H         -7.8067054944        1.1909453332       -0.7651143129
 H         -5.6537011258        0.3311704858       -1.6871625904
 H         -2.5335628839       -0.1703023084       -2.0730865153
 H         -3.4587068778        0.4475645577        1.3817530145
 H         -1.9569588209        1.6134267614        2.9611432114
 H          0.2546774900        2.4110188932        2.2062888385
 H          1.6217331440        3.0956820680        0.3699695975
 C          1.5172672975        2.5098793613       -1.6826206223
 C          0.8918835219        3.7565272977       -2.2301058492
 C          2.3818352584        3.6580579146       -2.1043874483
 H          2.9708793891        3.5553116589       -3.0035236654
 H          2.8693183374        4.2281631184       -1.3269679996
 H          0.4562895360        3.7255198891       -3.2171043996
 H          0.3660273659        4.3942733741       -1.5359240629
 H          1.5293255734        1.6284517771       -2.3115894701
