  62
        -98.94952287
 C          1.6467917203        0.7868486060       -0.7078387524
 C          1.5227445638        1.5721823453        0.4632854574
 C          0.5486057823        2.6717986551        0.3970421882
 C         -0.1769520710        2.8446695171       -0.7220980809
 C         -1.1974763225        3.9267747064       -0.9289200900
 C         -2.6096830574        3.4821638819       -0.5269633179
 C         -2.6934453589        2.8413810517        0.8585338625
 H         -3.7467256063        2.6240733209        1.0535091341
 H         -2.1706998389        1.8820431172        0.8593300423
 C         -2.1309583962        3.7029297881        1.9970018514
 H         -2.0730830675        4.7470410286        1.6853762208
 H         -2.8200734246        3.6526442714        2.8427274323
 C         -0.7642158208        3.2428498025        2.5088877197
 H         -0.7883367493        2.1625135424        2.6780206003
 H         -0.5798677444        3.7247507449        3.4732134592
 C          0.4301947647        3.5628604245        1.6006123779
 H          0.3953932434        4.6137252540        1.3029238075
 H          1.3426464172        3.3999671942        2.1820114868
 H         -3.2645560165        4.3553479451       -0.5614492574
 H         -2.9729258909        2.7594937278       -1.2616499170
 H         -0.9056523908        4.8003831997       -0.3487537008
 H         -1.2000971567        4.1915593558       -1.9880896802
 O         -0.0683811441        2.0350631277       -1.8075264706
 C          0.8372639667        0.9850472370       -1.8247867714
 O          0.8270069623        0.3144910864       -2.8768622410
 H          0.2173258727       -1.3130273186       -0.2661268994
 C          0.9314369680       -1.7309716309        0.4285937098
 C          2.2675229840       -1.3657572171        0.3246961578
 C          3.1797251111       -1.9274379272        1.2076924469
 C          2.7496095215       -2.8039925912        2.1895645779
 C          1.4105580050       -3.1222996150        2.3223890798
 C          0.4920887481       -2.5757558950        1.4328621308
 N         -0.8771310287       -2.8699990691        1.5193153028
 S         -1.9870841517       -1.6653553708        1.1654452638
 O         -1.4951405448       -0.3556393055        1.5195295825
 O         -3.1988931664       -2.0894035430        1.8371503656
 C         -2.2370475627       -1.7981632642       -0.5911815658
 C         -2.4472080005       -3.0502414967       -1.1342185349
 C         -2.6621781112       -3.1587649196       -2.4984507446
 C         -2.6660132741       -2.0211665900       -3.2918838951
 C         -2.4605798963       -0.7707741176       -2.7308292060
 C         -2.2465358756       -0.6571291047       -1.3669348964
 H         -2.0665882049        0.2967530274       -0.8961740671
 H         -2.4475618663        0.1147437722       -3.3460318165
 H         -2.8261984547       -2.1067617022       -4.3550192549
 H         -2.8215350618       -4.1288917214       -2.9407066839
 H         -2.4345093107       -3.9103874562       -0.4859193045
 H         -1.1492764820       -3.4108285615        2.3273790535
 H          1.0746718729       -3.7820897181        3.1078729106
 H          3.4663646569       -3.2300074434        2.8752808471
 H          4.2237354083       -1.6697520064        1.1376597653
 C          2.6321932422       -0.3688879338       -0.7483295132
 H          2.4932488959       -0.8526186257       -1.7265120127
 C          4.0549202971        0.1391409810       -0.6499581153
 C          5.1762959542       -0.6315955377       -1.2775873665
 C          4.7234091100        0.6610804973       -1.8850010365
 H          5.3628759712        1.5266235540       -1.7983922378
 H          4.1590682091        0.6259503010       -2.8056476357
 H          6.1319402951       -0.6525990976       -0.7758378878
 H          4.9270065730       -1.5467526305       -1.7928271557
 H          4.2466933530        0.6603395934        0.2807877541
 O          2.2081125571        1.3837664129        1.5025404566
