  62
        -98.94105408
 C         -1.8361697486       -1.6179611137        0.0066042533
 C         -2.6950506616       -0.9299988252        0.9046260002
 C         -3.5912598075        0.0737045952        0.3174910124
 C         -3.5628553483        0.2787884239       -1.0116344604
 C         -4.3847933876        1.3011470677       -1.7408949471
 C         -3.6416257772        2.6400737972       -1.8490693780
 C         -3.0550329517        3.1274205907       -0.5242871651
 H         -2.2775480852        2.4298471622       -0.2043447781
 H         -2.5761248094        4.0902085701       -0.7167953585
 C         -4.0804604665        3.2850253897        0.6069731029
 H         -3.9038279053        4.2374311066        1.1108940813
 H         -5.0883936694        3.3211131099        0.1920557193
 C         -4.0114792800        2.1936242053        1.6766942722
 H         -4.6203857609        2.5117306888        2.5269420226
 H         -2.9829079491        2.0894892976        2.0306670207
 C         -4.5143038581        0.8095307221        1.2476721085
 H         -4.5891065027        0.1898413733        2.1459595681
 H         -5.5103102618        0.8992385786        0.8089554772
 H         -4.3330162489        3.3878811328       -2.2416573192
 H         -2.8243543033        2.5252302120       -2.5651976882
 H         -5.3289252960        1.4393755042       -1.2173344367
 H         -4.5889118599        0.9261770990       -2.7452790493
 O         -2.7360687451       -0.4024712171       -1.8428986417
 C         -1.8495698602       -1.3599803693       -1.3643342219
 O         -1.1579337926       -1.8835093627       -2.2590467876
 O         -2.7167540939       -1.1564286545        2.1432781348
 C         -0.9222390833       -2.6696694106        0.6145867597
 C          0.4571231241       -2.1091119221        0.8490562014
 C          0.9962488406       -2.0409811228        2.1280100705
 C          2.2610127246       -1.5155898864        2.3321070290
 C          3.0124519221       -1.0510286967        1.2678954409
 C          2.4766276287       -1.1040408643       -0.0133131687
 C          1.2067491575       -1.6249798825       -0.2153638247
 H          0.7906479259       -1.6635554574       -1.2114092936
 N          3.2257794318       -0.6361924866       -1.1059857422
 S          4.0574961679        0.8041858498       -0.9468868029
 O          4.2062277877        1.3091873873       -2.2929931338
 O          5.2822280781        0.5743412646       -0.2212453262
 C          2.9892175182        1.8720294031        0.0021366207
 C          1.7686224909        2.2178644589       -0.5429841479
 C          0.9187988813        3.0361130657        0.1826600555
 C          1.2979222816        3.4864923501        1.4380872975
 C          2.5269245621        3.1309801045        1.9711866948
 C          3.3833140893        2.3163039607        1.2477420579
 H          4.3495340982        2.0202252975        1.6223307939
 H          2.8196431316        3.4845940685        2.9465918067
 H          0.6299855484        4.1197047502        2.0003903045
 H         -0.0360347570        3.3168789338       -0.2323093199
 H          1.5022576864        1.8533128298       -1.5228380075
 H          2.7321914011       -0.6850184412       -1.9851656467
 H          4.0057965878       -0.6566404230        1.4067074137
 H          2.6686239304       -1.4712927037        3.3303347378
 H          0.4126548847       -2.3936257858        2.9656153520
 H         -1.3661616966       -2.8762448746        1.6006407382
 C         -0.9233600322       -3.9767118661       -0.1699402980
 C          0.3034066248       -4.6002407971       -0.7606368009
 C         -0.3377421583       -5.2136694718        0.4451830372
 H         -0.8658680500       -6.1488957264        0.3374367267
 H          0.1720426984       -5.0999589260        1.3901975408
 H          0.2000004608       -5.0960898411       -1.7141365443
 H          1.2510597246       -4.1010176027       -0.6331978274
 H         -1.8392663352       -4.1086167871       -0.7370395331
