  62
        -98.94122055
 C         -1.7843065187       -0.0628839832        0.3647225858
 C         -2.9208080223       -0.4547066175        1.1207260955
 C         -4.1865178106        0.2128535242        0.7924051744
 C         -4.1942659875        1.1785897192       -0.1436856712
 C         -5.4190298962        1.9057377412       -0.6157709167
 C         -6.0581135360        1.1940437903       -1.8166317016
 C         -6.2577532465       -0.3077389305       -1.6113795679
 H         -5.2805652788       -0.7907495556       -1.5392660616
 H         -6.7420031164       -0.6967948193       -2.5097114271
 C         -7.0961256642       -0.6747405258       -0.3788566576
 H         -7.8177319725       -1.4437050057       -0.6627011463
 H         -7.6641647890        0.1944191851       -0.0451848469
 C         -6.2886905538       -1.2328962020        0.7945918355
 H         -5.6493371029       -2.0474034368        0.4445775607
 H         -6.9898090572       -1.6564645057        1.5185599351
 C         -5.4140133802       -0.2196959045        1.5436371270
 H         -5.0521877904       -0.7027220275        2.4560558464
 H         -6.0159599988        0.6454323704        1.8290253012
 H         -5.4138931454        1.3380030262       -2.6872934411
 H         -7.0202278380        1.6655583710       -2.0251019122
 H         -6.1334713883        1.9730490705        0.2024992763
 H         -5.1270277477        2.9138732040       -0.9148469226
 O         -3.0777541238        1.5720038847       -0.8040015576
 C         -1.8469703260        0.9626390072       -0.5807247870
 O         -0.9290820829        1.4297076151       -1.2793943328
 H          1.4850958715        0.0878173522       -1.0254024204
 C          1.5516652087        0.5569800662       -0.0559997287
 C          0.6204785741        0.2452808305        0.9220976501
 C          0.7117467982        0.8864926040        2.1534554336
 C          1.7123966256        1.8083827491        2.4018938742
 C          2.6430914636        2.1132459863        1.4234644235
 C          2.5481602803        1.4908886501        0.1877694572
 N          3.5208845620        1.7771664504       -0.8032686618
 S          4.9837385581        1.0089745638       -0.5215767657
 O          5.5835302796        1.5770527820        0.6583186378
 O          5.7434185026        1.1193836820       -1.7462408053
 C          4.5297715522       -0.6901946607       -0.2201796001
 C          4.4065129148       -1.5472906743       -1.2954223316
 C          3.9473953623       -2.8360900195       -1.0763481584
 C          3.6066664471       -3.2379296354        0.2063909558
 C          3.7342019709       -2.3643721423        1.2756279482
 C          4.1984405299       -1.0763379463        1.0632581098
 H          4.3102998077       -0.3676393828        1.8674410985
 H          3.4645248227       -2.6783382967        2.2711981069
 H          3.2383689007       -4.2380391038        0.3743223503
 H          3.8485938473       -3.5193339310       -1.9047297207
 H          4.6806048751       -1.1941753077       -2.2768451995
 H          3.1999808986        1.5492388119       -1.7344492289
 H          3.4435740873        2.8132600399        1.6002516294
 H          1.7706718743        2.2924875247        3.3649731532
 H         -0.0153766442        0.6526318645        2.9188421009
 C         -0.4732421597       -0.7611103155        0.6829955906
 H         -0.6713408229       -1.2790228842        1.6351266312
 C         -0.0615578554       -1.8343153813       -0.3148793506
 C         -1.0872984049       -2.7411859329       -0.9236720920
 C         -0.3586111298       -1.7521235636       -1.7809339141
 H          0.3848054746       -2.1241344685       -2.4710987769
 H         -0.8944806464       -0.8890355557       -2.1438873734
 H         -2.1234394115       -2.5450973897       -0.6885960826
 H         -0.8537474053       -3.7894089396       -1.0305535751
 H          0.8863173306       -2.2882530502       -0.0405383774
 O         -2.8764859190       -1.3245261165        2.0305077309
