  62
        -98.94426595
 C          1.8415092487        0.8115989376        0.3024219494
 C          2.3101967157       -0.5138088155        0.1360038257
 C          3.7463714888       -0.7129133344        0.3715113996
 C          4.5149234721        0.3253194048        0.7475870200
 C          5.9895937012        0.2749744420        1.0426300347
 C          6.8793428189        0.3830577396       -0.2033597511
 C          6.9023497912       -0.8577958650       -1.0967919685
 H          7.7238857045       -0.7279576568       -1.8041319049
 H          7.1297362828       -1.7360178174       -0.4917303922
 C          5.6066980639       -1.0952977886       -1.8851625706
 H          5.8501623665       -1.3329882043       -2.9232307330
 H          5.0137864638       -0.1778174139       -1.8981062765
 C          4.7398114341       -2.2358996610       -1.3515172522
 H          3.8330512964       -2.2912827110       -1.9595608806
 H          5.2736243800       -3.1830212366       -1.4577758373
 C          4.3167790754       -2.0749286448        0.1145495644
 H          3.5341355678       -2.8073182622        0.3281405079
 H          5.1637752373       -2.2651512366        0.7734477858
 H          6.5573466740        1.2473360970       -0.7887655947
 H          7.8983918162        0.5752923412        0.1401472438
 H          6.2247860723       -0.6437837313        1.5805428689
 H          6.2053689408        1.1247875048        1.6937407822
 O          4.0172582000        1.5778507806        0.9275924864
 C          2.6802471604        1.8555455585        0.6926472569
 O          2.3629399385        3.0485136999        0.8740504664
 O          1.5740321124       -1.4812818167       -0.1894882751
 C          0.3807016358        1.1377385247        0.0430347190
 C         -0.4988350597        0.2816542909        0.9197536718
 C         -0.2639215905        0.2834319174        2.2933182527
 C         -1.0223108588       -0.4975921314        3.1419585343
 C         -2.0407991832       -1.2896942616        2.6408233278
 C         -2.2889696408       -1.2930922165        1.2739924853
 C         -1.5277235154       -0.5016404315        0.4221481778
 H         -1.7305524775       -0.5388569342       -0.6348443429
 N         -3.3085152031       -2.0936159981        0.7446728807
 S         -4.1717893714       -1.6327478788       -0.6010897019
 O         -5.4043036031       -2.3868621619       -0.5080556329
 O         -3.4024708441       -1.8397908386       -1.8021031454
 C         -4.5131429861        0.1071608379       -0.3932775286
 C         -4.3346327662        0.9565437030       -1.4653102121
 C         -4.6145549642        2.3049490878       -1.3111322453
 C         -5.0665349482        2.7789986487       -0.0898356611
 C         -5.2473875809        1.9122645822        0.9772183818
 C         -4.9719029589        0.5629307247        0.8268982349
 H         -5.1098584031       -0.1311316185        1.6395416414
 H         -5.6011100825        2.2838690438        1.9253822200
 H         -5.2799632220        3.8293944956        0.0306504524
 H         -4.4758660259        2.9783656566       -2.1418301222
 H         -3.9759240362        0.5454136576       -2.3949338069
 H         -3.8731052695       -2.5858098956        1.4199733246
 H         -2.6290595780       -1.9100091074        3.2996826277
 H         -0.8217376501       -0.4909476717        4.2027186787
 H          0.5351842430        0.8999132142        2.6825670885
 H          0.2460194603        2.1868630315        0.3441291678
 C          0.0835359473        1.0156983671       -1.4363668000
 C         -0.9902162593        1.8513958950       -2.0622617594
 C          0.4511732112        2.1544595325       -2.3381489247
 H          0.8494290116        1.9307773556       -3.3165770988
 H          0.8904445970        3.0272796176       -1.8769724257
 H         -1.5800026214        1.4157143468       -2.8542425542
 H         -1.5382295464        2.5239516592       -1.4200616713
 H          0.2353829012        0.0105920328       -1.8142015630
