  62
        -98.94286695
 C         -2.3381113723       -0.9161853337        0.3367969126
 C         -2.5360892426        0.2480338071       -0.4444407662
 C         -3.5695103679        1.1785147074        0.0366866289
 C         -4.2269859065        0.9119797833        1.1790373313
 C         -5.3359781990        1.7457381723        1.7502372088
 C         -6.7044448702        1.2672595942        1.2449759283
 C         -6.7730252739        1.0813180718       -0.2708644819
 H         -6.1123817872        0.2607063878       -0.5600700814
 H         -7.7921892656        0.7739344099       -0.5150063778
 C         -6.4090035565        2.3332315602       -1.0811341090
 H         -7.1396354890        2.4556802876       -1.8834997740
 H         -6.4742287859        3.2176570533       -0.4463652017
 C         -5.0292660141        2.2837485860       -1.7401412279
 H         -4.9644247115        3.1086185023       -2.4549306936
 H         -4.9260754529        1.3535847507       -2.3048276947
 C         -3.8308284216        2.4062813157       -0.7904808312
 H         -2.9361566317        2.5530247031       -1.4027804940
 H         -3.9557324562        3.2825059359       -0.1511914549
 H         -6.9320222456        0.3090073485        1.7175556881
 H         -7.4602652099        1.9892162172        1.5593555615
 H         -5.3083897597        1.6557391207        2.8374061405
 H         -5.1798046501        2.7874880097        1.4772891407
 O         -3.9829166496       -0.1935710860        1.9261286738
 C         -3.0560872024       -1.1350048635        1.5185708065
 O         -2.9599830171       -2.1168219977        2.2812177040
 H          0.1449566950        0.0438576506       -0.9365711814
 C          0.6936533168       -0.5763408353       -0.2429667464
 C          0.0637762560       -1.6707005627        0.3322081332
 C          0.7823050398       -2.4562092871        1.2258126756
 C          2.0967105224       -2.1509679994        1.5328447305
 C          2.7194729694       -1.0568918248        0.9593314291
 C          2.0093384798       -0.2639017573        0.0676081659
 N          2.6255706431        0.8637569253       -0.5055667228
 S          4.0910663447        0.6364692585       -1.2936773462
 O          4.1913694819        1.7283397344       -2.2373473098
 O          4.1974414936       -0.6969213596       -1.8401314167
 C          5.3070854897        0.8667834156       -0.0131343608
 C          5.2957826024        2.0550433480        0.6908195560
 C          6.2428663478        2.2539686881        1.6826120297
 C          7.1816903232        1.2685194057        1.9501099324
 C          7.1819412116        0.0825089314        1.2320756734
 C          6.2364620056       -0.1232160039        0.2393154288
 H          6.1942024001       -1.0311292066       -0.3409666137
 H          7.9128153450       -0.6820611311        1.4411577853
 H          7.9175870319        1.4261916776        2.7227262101
 H          6.2460175850        3.1750067698        2.2430351759
 H          4.5519865530        2.7960773148        0.4494662411
 H          1.9973774276        1.4070221065       -1.0810130739
 H          3.7424593414       -0.8135070921        1.1960260575
 H          2.6423249016       -2.7705943258        2.2280157738
 H          0.2996021146       -3.3057049493        1.6868711831
 C         -1.3595519883       -2.0211651225       -0.0323987910
 H         -1.6539611267       -2.8867571992        0.5760233713
 C         -1.4463113724       -2.4169715484       -1.4949632450
 C         -0.9818161191       -3.7793552870       -1.9083940023
 C         -2.4441546734       -3.4503710696       -1.9183128734
 H         -2.9416167247       -3.3274001041       -2.8687143200
 H         -3.0693784013       -3.8845073188       -1.1513669357
 H         -0.4695937321       -3.8834278545       -2.8526798387
 H         -0.6164402547       -4.4390967580       -1.1360256403
 H         -1.2632704698       -1.5955054384       -2.1752617299
 O         -1.8971046806        0.5241951735       -1.4966961280
