  62
        -98.93310684
 C          2.3410134060       -1.0552789834       -0.4933100381
 C          2.6361463429       -0.0705824706        0.4798876032
 C          3.6091997043        0.9670116226        0.0851621820
 C          4.1307653187        0.9574233903       -1.1524310459
 C          5.0906820209        1.9382232699       -1.7781250228
 C          6.2725374177        2.4184621237       -0.9244002995
 C          6.8187094430        1.3836499076        0.0700472673
 H          6.4004468923        0.3990511118       -0.1462205427
 H          7.9010191523        1.3114632739       -0.0520195061
 C          6.5353175320        1.7497719818        1.5290105798
 H          6.7244185004        2.8167957980        1.6653493913
 H          7.2366815813        1.2095798547        2.1695416187
 C          5.1271504676        1.4248995518        2.0258820444
 H          5.0221139622        1.8371054448        3.0324703947
 H          5.0047868020        0.3415461949        2.1104667630
 C          3.9782015366        1.9564689316        1.1533403941
 H          3.0945792766        2.0603669037        1.7891396351
 H          4.2197377712        2.9301120731        0.7340810415
 H          7.0636006353        2.7095686602       -1.6174915276
 H          5.9877502914        3.3173265377       -0.3792443009
 H          5.4659345823        1.4343706642       -2.6720516919
 H          4.5171421257        2.8065140600       -2.1153147229
 O          3.7990780425        0.0043832010       -2.0685543559
 C          2.9198439721       -1.0175646960       -1.7648833962
 O          2.7372955724       -1.8268952116       -2.6958649334
 O          2.1158705281       -0.0269608447        1.6254868415
 C          1.3924095340       -2.2181493400       -0.2481493307
 C         -0.0390446819       -1.8241818659       -0.5077605635
 C         -0.8528933188       -2.5865606769       -1.3368872038
 C         -2.1708937902       -2.2242863075       -1.5548085475
 C         -2.7021816480       -1.0971678739       -0.9539039081
 C         -1.8974056653       -0.3288867725       -0.1225901094
 C         -0.5769005393       -0.6951711037        0.0946539691
 H          0.0424127953       -0.1026057099        0.7520915730
 N         -2.4210057626        0.8259034794        0.4851086808
 S         -3.8714049637        0.6864185632        1.3197616060
 O         -3.8622424002        1.7641357644        2.2842953658
 O         -4.0518106620       -0.6467770844        1.8463954328
 C         -5.1064246601        1.0278513782        0.0835159190
 C         -5.0070079561        2.2091057966       -0.6253498738
 C         -5.9657843536        2.4968488352       -1.5834726127
 C         -7.0033497336        1.6052979014       -1.8129865478
 C         -7.0908280089        0.4251485494       -1.0906570430
 C         -6.1342368506        0.1307417826       -0.1313492503
 H         -6.1580953120       -0.7768434095        0.4505667213
 H         -7.8981348878       -0.2663986385       -1.2707525617
 H         -7.7478069381        1.8318207728       -2.5598406066
 H         -5.9008179482        3.4133153105       -2.1476325082
 H         -4.1866999778        2.8750345211       -0.4146991809
 H         -1.7400487378        1.3270809264        1.0381765979
 H         -3.7279337087       -0.8110395674       -1.1198357178
 H         -2.7915345560       -2.8247965088       -2.2020692616
 H         -0.4426530376       -3.4618548486       -1.8190923327
 H          1.6681767833       -2.9727465785       -1.0014437514
 C          1.5894511413       -2.8571321879        1.1216396917
 C          0.5777931779       -2.8055601941        2.2233683966
 C          0.8178416533       -4.0894235399        1.4909245794
 H          1.3317693992       -4.8911064384        1.9992045241
 H          0.0522329872       -4.4185912491        0.8044267763
 H          0.9454536418       -2.7036553305        3.2333394615
 H         -0.3520088319       -2.2856423968        2.0502587238
 H          2.6294188177       -2.8284746151        1.4317029811
