  62
        -98.94185293
 C          0.8198560032        1.3385956844        0.4806882478
 C          1.2521403588        0.7134298236       -0.7105792551
 C          2.2069253499       -0.3990997401       -0.5539971138
 C          2.5141415706       -0.8239544782        0.6835910894
 C          3.4951982850       -1.8965797206        1.0722144495
 C          4.8749145278       -1.2859911535        1.3731362680
 C          5.7869517906       -1.1311506763        0.1567080139
 H          6.6704362303       -0.5771533876        0.4821834960
 H          6.1215782836       -2.1184211532       -0.1685280257
 C          5.1639005334       -0.4058644866       -1.0388465068
 H          4.6031249840        0.4628232754       -0.6888966849
 H          5.9773534525       -0.0340077827       -1.6648513676
 C          4.2544270586       -1.3080009057       -1.8866567343
 H          4.5559615154       -1.2418740582       -2.9339548600
 H          4.4020259995       -2.3452941772       -1.5878366646
 C          2.7604403171       -0.9593976017       -1.8351459179
 H          2.5386358226       -0.1957738540       -2.5871684453
 H          2.1752757713       -1.8410306411       -2.1110874155
 H          4.7158222906       -0.3114399456        1.8421122913
 H          5.3868994267       -1.9177312924        2.1020132265
 H          3.1118657880       -2.3528186600        1.9877201539
 H          3.5681353979       -2.6568833331        0.3003547361
 O          1.9798865616       -0.2639886367        1.8063207355
 C          1.1639408178        0.8496936211        1.7396094736
 O          0.8119650591        1.3019140350        2.8490831991
 O          0.8840576796        1.0805693086       -1.8565435003
 C         -0.0601011171        2.5731441420        0.4116725197
 C         -1.3571644080        2.2498417343       -0.2880320102
 C         -1.8579459546        2.9812460353       -1.3566187400
 C         -3.0634545221        2.6300359807       -1.9390670118
 C         -3.7939186134        1.5564629036       -1.4658547136
 C         -3.3074607108        0.8264558729       -0.3858417834
 C         -2.0953219115        1.1725491599        0.1884339922
 H         -1.7252698443        0.6080741410        1.0325969420
 N         -4.0504738137       -0.2381658912        0.1397854878
 S         -3.3551219365       -1.5033992086        0.9596926771
 O         -4.3995085259       -2.5064343202        0.9961443275
 O         -2.8592705455       -1.0718717576        2.2426012307
 C         -2.0222930072       -2.1223602076       -0.0505356905
 C         -0.8229421422       -2.4509164067        0.5457361733
 C          0.1608715892       -3.0616354200       -0.2151788212
 C         -0.0669551419       -3.3201271676       -1.5574133397
 C         -1.2673912975       -2.9603483325       -2.1496413987
 C         -2.2595345750       -2.3645577425       -1.3891939128
 H         -3.2114740337       -2.0980192059       -1.8181391520
 H         -1.4361495959       -3.1520409940       -3.1969771207
 H          0.6926429918       -3.8126244664       -2.1443029904
 H          1.0953977646       -3.3364945294        0.2459531168
 H         -0.6818051926       -2.2258499070        1.5919986287
 H         -4.8684743779       -0.5089657111       -0.3841254857
 H         -4.7361935059        1.2870347041       -1.9173561978
 H         -3.4390905497        3.2013645890       -2.7741151040
 H         -1.3037251688        3.8226478332       -1.7375351435
 H         -0.2989455392        2.8324785759        1.4539523087
 C          0.7040126992        3.7212541823       -0.2149110641
 C          0.3554803828        5.1365334943        0.1314486651
 C          1.6263629693        4.5304301992        0.6444346760
 H          2.5642805376        4.8627634402        0.2252676547
 H          1.6851037682        4.2693890803        1.6915401006
 H          0.4237954065        5.8892051569       -0.6393297981
 H         -0.4487865346        5.2952344812        0.8339220001
 H          1.0271323897        3.5045166223       -1.2264215568
