  62
        -98.94177680
 C          0.8360033693        1.3826605693        0.5308785287
 C          1.3362946795        0.8517470249       -0.6848673543
 C          2.3833237837       -0.1774998719       -0.5473862650
 C          2.7974546806       -0.5506815343        0.6757609235
 C          3.9233955839       -1.5059107454        0.9495967968
 C          5.2643166998       -0.7644733021        1.0533421457
 C          5.5306501821        0.2044731782       -0.0985252710
 H          4.8031043189        1.0182284311       -0.0566615554
 H          6.5156390098        0.6455113009        0.0687953545
 C          5.4888662395       -0.4379587908       -1.4921244026
 H          5.5864044062       -1.5207343199       -1.4050659800
 H          6.3442750340       -0.0811762015       -2.0696195479
 C          4.2348393276       -0.1076517788       -2.3037940469
 H          4.0839920615        0.9746705210       -2.3245435162
 H          4.3985344660       -0.4337619338       -3.3345376636
 C          2.9374156916       -0.7639539668       -1.8154395387
 H          2.1723445549       -0.6013390956       -2.5816857222
 H          3.0891455610       -1.8407064635       -1.7087560844
 H          6.0648212471       -1.5050541734        1.0989528567
 H          5.2730722195       -0.1959263915        1.9860002550
 H          3.7299366940       -2.0085504514        1.8988509757
 H          3.9693669557       -2.2481628833        0.1544767262
 O          2.2636718256       -0.0501047503        1.8186321422
 C          1.2762043005        0.9177213435        1.7731265823
 O          0.8796111601        1.2942526899        2.8939109530
 H         -1.2906014985        0.5227893192       -0.9584818446
 C         -1.9953714096        0.9264965541       -0.2478631951
 C         -1.6080017126        1.9362665195        0.6223451807
 C         -2.5441749211        2.4472844251        1.5151061154
 C         -3.8423774841        1.9709811247        1.5257966617
 C         -4.2263754943        0.9660101781        0.6569733253
 C         -3.2955376761        0.4400162088       -0.2319048305
 N         -3.6588725540       -0.5843412517       -1.1181066205
 S         -2.5719090944       -1.8044794429       -1.4577477509
 O         -1.6362308393       -1.3892111532       -2.4693498808
 O         -3.4095368351       -2.9331317448       -1.8104655849
 C         -1.7274785566       -2.1564444566        0.0743752147
 C         -2.4712073742       -2.3214855437        1.2264442060
 C         -1.8193378387       -2.6418748431        2.4056090617
 C         -0.4437474757       -2.8135722569        2.4096081939
 C          0.2862281494       -2.6587713778        1.2424589517
 C         -0.3579256759       -2.3160270925        0.0644293149
 H          0.1786287967       -2.1615045829       -0.8587771615
 H          1.3550076257       -2.7978935133        1.2437467824
 H          0.0644071484       -3.0676806915        3.3263391828
 H         -2.3840882333       -2.7608858966        3.3160847049
 H         -3.5417426668       -2.2020489898        1.1938217069
 H         -4.5964215104       -0.9397774164       -0.9996081597
 H         -5.2378067132        0.5896397068        0.6623200993
 H         -4.5599272928        2.3796621242        2.2204234846
 H         -2.2429962588        3.2173334368        2.2097886009
 C         -0.2055333337        2.4871077319        0.5967919981
 H         -0.0358218862        2.9829238247        1.5665429385
 C         -0.0195268453        3.5465615748       -0.4823265976
 C         -0.9063579734        3.6728159954       -1.6802276655
 C         -0.9787321252        4.6953621338       -0.5886531722
 H         -0.5828515881        5.6820205477       -0.7761453637
 H         -1.8486571062        4.6805473391        0.0501188180
 H         -0.4431471753        3.9373363553       -2.6186093774
 H         -1.7206251134        2.9730952341       -1.7873757065
 H          1.0299021755        3.7758322352       -0.6397345268
 O          0.9614368304        1.2106745083       -1.8293065124
