  62
        -98.93348534
 C         -0.2358695860       -2.0761325296       -0.2817769888
 C         -1.2760310325       -2.1667284181        0.6759817156
 C         -2.6098714482       -1.6886545963        0.2717954281
 C         -2.7608662513       -1.1577444154       -0.9534627829
 C         -4.0122964487       -0.5992560810       -1.5751964947
 C         -4.1406463022        0.9101123690       -1.3120011901
 C         -4.8693551275        1.2742731383       -0.0200900460
 H         -4.8091333884        2.3584375198        0.0927765919
 H         -5.9251293195        1.0134900909       -0.1185758765
 C         -4.3126188111        0.6111893876        1.2415647920
 H         -3.2219316518        0.6338340072        1.2137452447
 H         -4.6318196574        1.2008078427        2.1025827364
 C         -4.7944065289       -0.8349047552        1.4262646194
 H         -5.2186602752       -0.9531351548        2.4256541317
 H         -5.6004823164       -1.0419813947        0.7231348761
 C         -3.7002496665       -1.8988456964        1.2880960837
 H         -4.1693798714       -2.8691121407        1.0896325283
 H         -3.1721541683       -2.0033923626        2.2412308324
 H         -3.1329526053        1.3330827783       -1.3006435222
 H         -4.6795970276        1.3644376595       -2.1459877339
 H         -4.8884818139       -1.1366477552       -1.2241484184
 H         -3.9140348697       -0.7585136357       -2.6512719658
 O         -1.7200241603       -1.0275841572       -1.8224793742
 C         -0.4462108861       -1.5030709886       -1.5369303924
 O          0.3603351483       -1.3585682510       -2.4721531335
 O         -1.0994523381       -2.6550163637        1.8252184380
 C          1.1021967311       -2.6676561462        0.1213699899
 C          1.9953984106       -1.6571519087        0.7943701897
 C          2.6606170273       -1.9940434065        1.9684334015
 C          3.5095150224       -1.0912904515        2.5824097752
 C          3.7071641851        0.1634103038        2.0372554586
 C          3.0406353504        0.5145439303        0.8665493638
 C          2.1845017055       -0.3914622302        0.2540117511
 H          1.6803489731       -0.1132100710       -0.6595023808
 N          3.2509176242        1.7806652565        0.3086878761
 S          2.2203763587        2.5562426939       -0.7329745288
 O          2.1298056255        1.8595897143       -1.9899385914
 O          2.7551329148        3.9014920698       -0.8004480538
 C          0.6138822458        2.6605350229        0.0405650201
 C         -0.4086455708        3.1396540803       -0.7550442272
 C         -1.6512603786        3.3768206320       -0.1908824657
 C         -1.8545742587        3.1223435213        1.1568746822
 C         -0.8255004800        2.6239372748        1.9386052551
 C          0.4251550287        2.3996024125        1.3822965847
 H          1.2347540212        2.0204515042        1.9842623244
 H         -0.9876358636        2.4145668904        2.9837892858
 H         -2.8187439031        3.3139476441        1.5996435818
 H         -2.4509296835        3.7663242250       -0.8006757041
 H         -0.2064508288        3.3187856263       -1.7994521244
 H          3.7966640790        2.4249456113        0.8601278516
 H          4.3720111317        0.8709158497        2.5083692962
 H          4.0203816260       -1.3648063903        3.4926973679
 H          2.4987549054       -2.9690558872        2.4033740599
 H          0.8506243630       -3.4275284826        0.8795017321
 C          1.8063611005       -3.3930887358       -1.0173896718
 C          2.9929226561       -2.8435076767       -1.7439474264
 C          3.1625921628       -3.9995339930       -0.8069654814
 H          3.3610992668       -4.9762833496       -1.2213588851
 H          3.6544802174       -3.8082972064        0.1346778858
 H          3.0494101497       -3.0156969360       -2.8080270869
 H          3.3708823738       -1.8768525926       -1.4491072398
 H          1.1060914227       -3.9662927734       -1.6174109578
