  62
        -98.94469270
 C         -2.6215847196       -1.2453197601        0.1266236599
 C         -2.6563142794       -0.2982188606       -0.9255777606
 C         -3.4907448096        0.8881346094       -0.6920296213
 C         -4.1781656099        1.0170735799        0.4563759485
 C         -5.0791575802        2.1622102399        0.8302254677
 C         -4.3384294804        3.3644079003        1.4316580973
 C         -3.5169132603        4.1860068599        0.4372900772
 H         -4.1431619401        4.4599147595       -0.4123649831
 H         -3.2310014205        5.1100727002        0.9434370268
 C         -2.2448727001        3.4875493798       -0.0641859122
 H         -1.4040106002        4.1846067900       -0.0298871723
 H         -1.9911847502        2.6597765202        0.6030923083
 C         -2.3334565497        2.9590378692       -1.4959669520
 H         -1.3897123595        2.4579880992       -1.7297448915
 H         -2.4480911996        3.7961003389       -2.1885899324
 C         -3.4786422395        1.9656102390       -1.7343501618
 H         -4.4329816795        2.4911635188       -1.7505788523
 H         -3.3230470892        1.4898002585       -2.7056540715
 H         -5.0891747606        4.0201385704        1.8784420769
 H         -3.6872224706        3.0085687207        2.2334622177
 H         -5.6476423700        2.4829504895       -0.0429716926
 H         -5.7757213803        1.7778274302        1.5783025577
 O         -4.1405910801        0.0744258803        1.4339576289
 C         -3.3494198499       -1.0533206997        1.3063486196
 O         -3.3864424801       -1.8133650492        2.2944540199
 H         -0.0336132792       -1.1323338206       -1.4674957095
 C          0.4169287506       -1.4404958901       -0.5358127393
 C         -0.3354001696       -2.1676176997        0.3758028209
 C          0.2498063902       -2.5224400991        1.5858641612
 C          1.5539527100       -2.1579985789        1.8717629714
 C          2.2973160802       -1.4264040192        0.9626383612
 C          1.7169450305       -1.0571251998       -0.2433860591
 N          2.4559296306       -0.2871956501       -1.1640272493
 S          3.0470469303        1.1808017202       -0.5922923698
 O          2.2419025700        1.6892202106        0.4950325698
 O          3.1672259505        2.0298963197       -1.7576847701
 C          4.6783087502        0.7714133506       -0.0065437192
 C          5.0315134898        1.0447378613        1.3002112308
 C          6.3092071298        0.7215097916        1.7305057913
 C          7.2060166201        0.1350240213        0.8507549018
 C          6.8362832404       -0.1308235094       -0.4594432582
 C          5.5610060905        0.1902892903       -0.8959349787
 H          5.2341957808        0.0041284098       -1.9052879387
 H          7.5366029306       -0.5868108196       -1.1405029178
 H          8.1991093300       -0.1160738285        1.1883307821
 H          6.5982877095        0.9277063821        2.7485337212
 H          4.2982337796        1.4963594415        1.9493601904
 H          1.9597429108       -0.1389636306       -2.0323567195
 H          3.3099180001       -1.1297701690        1.1833195313
 H          1.9946022398       -2.4417214884        2.8153508516
 H         -0.3346990300       -3.0691602289        2.3118599913
 C         -1.7767719495       -2.5115656200        0.0841838507
 H         -2.1444703096       -3.1387559097        0.9069411809
 C         -1.9275619191       -3.2848746606       -1.2106792790
 C         -1.5589917089       -4.7366258206       -1.2340316383
 C         -2.9981747689       -4.3269405708       -1.3170857988
 H         -3.5158241987       -4.4386257913       -2.2579433189
 H         -3.6260486391       -4.4877195605       -0.4525864889
 H         -1.2111504291       -5.1783636002       -0.3125112680
 H         -1.0855307686       -5.1330909610       -2.1189657880
 H         -1.7215901189       -2.6967563910       -2.0948018692
 O         -2.0369613192       -0.4116331310       -2.0180823504
