  62
        -98.93812241
 C         -1.9602804969       -1.0781886894       -0.1963988918
 C         -2.3161755158        0.2548879569       -0.5217369629
 C         -3.5274302995        0.7671490400        0.1418691326
 C         -4.1955873041        0.0022981012        1.0219463723
 C         -5.4260540077        0.3989483312        1.7920121801
 C         -6.7355859933        0.2176376575        1.0123110145
 C         -6.9724866823        1.2324809715       -0.1068444952
 H         -6.8523665711        2.2418059754        0.2879925865
 H         -8.0129668519        1.1267155420       -0.4202989395
 C         -6.0672200153        1.0468020049       -1.3326252069
 H         -6.6678136182        1.1133667186       -2.2426202306
 H         -5.6265640965        0.0473887081       -1.3121551227
 C         -4.9453565819        2.0782887335       -1.4546082171
 H         -5.3744840974        3.0710214981       -1.6081802206
 H         -4.3453479610        1.8316423174       -2.3343752956
 C         -4.0053335770        2.1349305032       -0.2433161346
 H         -4.5041463877        2.6156326585        0.5982221471
 H         -3.1287175699        2.7284227888       -0.5159678443
 H         -7.5555532767        0.3019913694        1.7291686872
 H         -6.7582811395       -0.7931231856        0.5985608057
 H         -5.4592093401       -0.2428492925        2.6750405632
 H         -5.3358091385        1.4352793017        2.1188634424
 O         -3.8005572256       -1.2607522503        1.3345384302
 C         -2.6949085673       -1.8292859568        0.7262634099
 O         -2.4671961441       -3.0034081581        1.0819321028
 H          0.3294958481        0.5299350867        0.1603541752
 C          0.8631840224       -0.3457755294        0.4967776721
 C          0.4493298923       -1.6128162653        0.1053706105
 C          1.1536167080       -2.7190414965        0.5692621287
 C          2.2420626204       -2.5667339582        1.4089583312
 C          2.6632352931       -1.3030157810        1.7803347858
 C          1.9703974220       -0.1903336793        1.3180730424
 N          2.3965512490        1.1178456386        1.6482267908
 S          3.1487028974        1.9449801091        0.3979858406
 O          3.6354641360        3.1744645881        0.9833365659
 O          2.2484127321        2.0630584353       -0.7165501747
 C          4.5277686463        0.8961299267       -0.0344740364
 C          5.7491769278        1.1096148732        0.5742337265
 C          6.7967352040        0.2458016211        0.2975201093
 C          6.6019591281       -0.8185310483       -0.5698477625
 C          5.3688650933       -1.0213223506       -1.1704819862
 C          4.3183902302       -0.1581021203       -0.9013647950
 H          3.3478744755       -0.2808320344       -1.3545686319
 H          5.2174990802       -1.8481694463       -1.8454821893
 H          7.4159784561       -1.4937646875       -0.7810917355
 H          7.7576730217        0.4030454049        0.7603524461
 H          5.8551710858        1.9523812657        1.2383001270
 H          2.9977609063        1.1480434502        2.4611213406
 H          3.5170816784       -1.1748467239        2.4289708491
 H          2.7698769396       -3.4359082969        1.7696359997
 H          0.8248338812       -3.7068071002        0.2818323939
 C         -0.7557750239       -1.7998432381       -0.7807909101
 H         -1.0193097949       -2.8696213803       -0.7418888000
 C         -0.4852969895       -1.4740914003       -2.2419303075
 C          0.5421961660       -0.4958959328       -2.7152069640
 C          0.7757775666       -1.9643052631       -2.8927869021
 H          0.7185288919       -2.3799995704       -3.8873949306
 H          1.5076784230       -2.4377384863       -2.2550741239
 H          1.1147059111        0.0554240076       -1.9860834915
 H          0.2923041620        0.0994286689       -3.5808333356
 H         -1.3944883521       -1.5298945821       -2.8332341352
 O         -1.6835895011        0.9952798069       -1.3155980259
