  62
        -98.93842563
 C         -2.2668632548       -0.8399401395        0.2063240262
 C         -1.6080679902       -0.1768493355       -0.8571565722
 C         -1.9739990157        1.2327019011       -1.0585564994
 C         -2.8594142543        1.8112796987       -0.2284886041
 C         -3.3296718588        3.2337761929       -0.3245461705
 C         -2.4772222381        4.1805346875        0.5296841833
 C         -0.9716630164        4.0274118282        0.3130507980
 H         -0.4765922300        4.7853831060        0.9253031925
 H         -0.6450745646        3.0557621136        0.6914978323
 C         -0.5187706930        4.1737187498       -1.1463153200
 H         -1.2887636169        4.6832296262       -1.7278239255
 H          0.3758578973        4.7997021280       -1.1697995444
 C         -0.1537341659        2.8497038056       -1.8203771316
 H          0.5031642248        2.2845573933       -1.1544374901
 H          0.4070081998        3.0717692543       -2.7324455505
 C         -1.3355588178        1.9530963521       -2.2127358766
 H         -2.0779335771        2.5401154355       -2.7584680307
 H         -0.9562794627        1.1727391862       -2.8788859786
 H         -2.7760273934        5.2068740394        0.3056809014
 H         -2.6915152450        3.9868130316        1.5835036444
 H         -3.3005171374        3.5460347787       -1.3669220958
 H         -4.3621757442        3.2744710439        0.0282553135
 O         -3.4279303746        1.1577454859        0.8187897531
 C         -3.1355413456       -0.1719206429        1.0669961697
 O         -3.7088677727       -0.6471539773        2.0717955628
 O         -0.7713202342       -0.7306136690       -1.6145003716
 C         -2.0077265749       -2.3188190067        0.4895004171
 C         -0.5135436227       -2.5316019634        0.4834329317
 C          0.2428193750       -3.3592906755       -0.3359923130
 C          1.6271973428       -3.3583470891       -0.2649528791
 C          2.2983268126       -2.5133030058        0.5977268735
 C          1.5542249564       -1.6919116680        1.4329574619
 C          0.1740753458       -1.7326270924        1.3962235744
 H         -0.3902734487       -1.0745373505        2.0473885025
 N          2.2371755618       -0.7338285395        2.2416676657
 S          2.1996022775        0.7720339861        1.4678587692
 O          2.9179570602        1.6789752291        2.3391715727
 O          0.8437807529        1.1677658837        1.1526553923
 C          3.1385179022        0.4604052292       -0.0070380311
 C          2.4971207797        0.0283579059       -1.1512320748
 C          3.2622487197       -0.2542142349       -2.2727940976
 C          4.6398348157       -0.1062421520       -2.2303796731
 C          5.2668347883        0.3260206397       -1.0709777821
 C          4.5106819280        0.6102012978        0.0542090974
 H          4.9486500687        0.9512755787        0.9778961179
 H          6.3385389011        0.4393190763       -1.0400715272
 H          5.2278028474       -0.3304961079       -3.1064963366
 H          2.7701667137       -0.5944123273       -3.1696800992
 H          1.4237775825       -0.0898958286       -1.1591208782
 H          1.8077210533       -0.6178310238        3.1509638659
 H          3.3747643973       -2.4713233743        0.6283037881
 H          2.1889842405       -4.0071726985       -0.9189777915
 H         -0.2250043611       -3.9932411666       -1.0665694366
 H         -2.3439777300       -2.4747067212        1.5288727114
 C         -2.9523695400       -3.1406411488       -0.3743080733
 C         -2.7113610085       -3.5139478941       -1.8033005619
 C         -2.7692162958       -4.5805410436       -0.7484554454
 H         -3.6438509915       -5.2139187354       -0.7236040607
 H         -1.8654307687       -5.0844501339       -0.4487961521
 H         -3.5424484143       -3.4306880447       -2.4889335215
 H         -1.7675313869       -3.2371642504       -2.2435255662
 H         -3.9729590201       -2.8475423661       -0.1344959706
