  62
        -98.94075423
 C          2.0216155078        1.3387649978        0.3716086597
 C          2.4968250952        0.6333680152       -0.7619204102
 C          3.7004806766       -0.1869271825       -0.5470914304
 C          4.2635014518       -0.2357462974        0.6729905127
 C          5.4562049926       -1.0703446214        1.0376539079
 C          5.0296291945       -2.4521777412        1.5526256286
 C          4.0132333714       -3.1593263837        0.6556658478
 H          3.8091386081       -4.1353980997        1.1014883298
 H          3.0746688057       -2.5998183936        0.6670920954
 C          4.4708434404       -3.3469073926       -0.7976124329
 H          5.5536913293       -3.2339279803       -0.8622597033
 H          4.2319511276       -4.3655532467       -1.1104665690
 C          3.8023191669       -2.4049891130       -1.8010101681
 H          2.7167184793       -2.4458831929       -1.6770438536
 H          4.0284717572       -2.7660474885       -2.8078740934
 C          4.2404129295       -0.9365199042       -1.7322981907
 H          5.3301304843       -0.8753810606       -1.7651571221
 H          3.8396441361       -0.4309043588       -2.6157658183
 H          5.9211989779       -3.0734814900        1.6542601088
 H          4.5854705462       -2.3309086097        2.5434418243
 H          6.0982000303       -1.1781161562        0.1656754325
 H          6.0099133302       -0.5547535539        1.8242214207
 O          3.7669507970        0.4378691707        1.7421076151
 C          2.6272882346        1.2174064426        1.6245604123
 O          2.2517642173        1.7374345607        2.6945947478
 H         -0.2177661221       -0.1595585934        0.9521621858
 C         -0.7106273313        0.2300588280        0.0689583781
 C         -0.3186917113        1.4669351167       -0.4307665296
 C         -0.9614219635        1.9580044366       -1.5585178842
 C         -1.9484469551        1.2137441806       -2.1820874121
 C         -2.3198972871       -0.0252677494       -1.6953691412
 C         -1.6920722178       -0.5203133098       -0.5587561454
 N         -2.0692133187       -1.7739981683       -0.0483538533
 S         -3.7011569798       -2.1303302569        0.0404613332
 O         -3.8220204963       -3.0759119813        1.1282850649
 O         -4.1708333742       -2.5874101802       -1.2436240094
 C         -4.4973003679       -0.5893987361        0.4595382854
 C         -4.1341027318        0.0304760301        1.6388463629
 C         -4.7183972116        1.2429058302        1.9665122590
 C         -5.6519639256        1.8119303946        1.1135280753
 C         -6.0104344948        1.1743573510       -0.0637770446
 C         -5.4272291774       -0.0376008223       -0.3976330006
 H         -5.6742678918       -0.5659040204       -1.3040374298
 H         -6.7382121389        1.6180938119       -0.7237589399
 H         -6.1023960617        2.7575836714        1.3705679052
 H         -4.4406716246        1.7396695707        2.8823680208
 H         -3.4091164969       -0.4402178554        2.2837976767
 H         -1.5866696802       -2.0388454026        0.7970837391
 H         -3.0700195465       -0.6253453294       -2.1844048515
 H         -2.4296804851        1.6012631080       -3.0669424736
 H         -0.6701526666        2.9104024241       -1.9688856930
 C          0.7738384189        2.2036757590        0.3055990788
 H          0.4527364179        2.3138158326        1.3548529627
 C          1.0151418409        3.6114718481       -0.2185233276
 C          2.3524947044        4.2720090558       -0.0701450836
 C          1.8541223474        3.8861617901       -1.4288100854
 H          1.5420013109        4.6729514189       -2.1001025441
 H          2.3061014845        3.0425915586       -1.9253115179
 H          3.1527263624        3.6921107707        0.3668935284
 H          2.3805080985        5.3189822660        0.1923109338
 H          0.1494880499        4.2498050560       -0.0712631856
 O          1.9565805271        0.6753418495       -1.8962682249
