  62
        -98.93826600
 C          2.5012563339        1.3779865943        0.1350059431
 C          2.5717295991        0.3413413888       -0.8227950441
 C          3.5492737848       -0.7391496503       -0.5699555835
 C          4.3146138132       -0.6836233214        0.5352270062
 C          5.3479662679       -1.6685944412        1.0144681842
 C          4.7257716406       -2.9309875599        1.6305937262
 C          3.5706589580       -3.5304394059        0.8332359427
 H          2.7780285381       -2.7861945442        0.7312766388
 H          3.1589741795       -4.3589843638        1.4158070946
 C          3.9435547390       -4.0695505815       -0.5459121856
 H          3.0540454301       -4.5587288832       -0.9517401000
 H          4.7193568683       -4.8304398490       -0.4355355348
 C          4.4189228545       -3.0317576627       -1.5656284206
 H          4.3899890403       -3.5078405605       -2.5501124280
 H          5.4535535648       -2.7498714314       -1.3899165913
 C          3.5436842611       -1.7860470723       -1.6583166103
 H          2.4975698754       -2.0917177871       -1.7804919424
 H          3.7956856414       -1.2501887422       -2.5814667407
 H          4.3464552309       -2.6727441810        2.6223050582
 H          5.5119192563       -3.6778631933        1.7534700780
 H          6.0234646100       -1.9268864500        0.2045154724
 H          5.9307701322       -1.1579551533        1.7842717228
 O          4.2101330967        0.3356599369        1.4350320139
 C          3.3141055126        1.3697810960        1.2722478869
 O          3.3372394449        2.2183995769        2.1860484632
 H         -0.2360279152        1.1903036475       -1.5435031495
 C         -0.6327770439        1.3899789718       -0.5600871612
 C          0.1414764807        2.0795729824        0.3613994764
 C         -0.3691634114        2.2828223424        1.6392512581
 C         -1.6244651612        1.8121171019        1.9799488077
 C         -2.3928985120        1.1234106872        1.0578280343
 C         -1.8842804964        0.9001344262       -0.2144168760
 N         -2.6482679052        0.1828611374       -1.1539815854
 S         -3.2489288826       -1.3114182286       -0.6740692457
 O         -2.4241404222       -1.9148498800        0.3478421855
 O         -3.4171972199       -2.0673089617       -1.8963164767
 C         -4.8570503969       -0.9223314726       -0.0138479588
 C         -5.7447800081       -0.2417827869       -0.8241922335
 C         -7.0021680807        0.0652375023       -0.3295084092
 C         -7.3501628518       -0.3141513521        0.9584582031
 C         -6.4492273844       -1.0005237619        1.7580609532
 C         -5.1891538741       -1.3096961833        1.2694946694
 H         -4.4536761990       -1.8367542233        1.8564522062
 H         -6.7215420227       -1.2953342613        2.7588125454
 H         -8.3293049075       -0.0737176355        1.3415314341
 H         -7.7055209023        0.5988022823       -0.9482865742
 H         -5.4360414320        0.0308938580       -1.8194630042
 H         -2.1901864817        0.1009293773       -2.0511816599
 H         -3.3684460991        0.7469683197        1.3191967849
 H         -2.0083011587        1.9804797977        2.9746629280
 H          0.2380863465        2.7987506699        2.3695577739
 C          1.5352150002        2.5485031015        0.0187590132
 H          1.8471681311        3.2625800864        0.7922950397
 C          1.6094658066        3.2383434241       -1.3284632583
 C          1.0381485412        4.6160940828       -1.4688584699
 C          2.5226892667        4.4135893418       -1.4970155036
 H          3.0432240121        4.5298638590       -2.4358420622
 H          3.0982804244        4.7268425602       -0.6380496880
 H          0.6054901018        5.0672380999       -0.5887228288
 H          0.5367690974        4.8751368916       -2.3886552888
 H          1.5164594927        2.5633721706       -2.1688141685
 O          1.8627118494        0.2914113630       -1.8646724103
