  62
        -98.93864779
 C          2.1030873459       -1.0065454886        0.4233475604
 C          3.1447835467       -1.2772975614       -0.4957850308
 C          4.4238943515       -0.5849378096       -0.2652557467
 C          4.5314136716        0.2533867438        0.7801517861
 C          5.7178450508        1.0965326096        1.1575713522
 C          5.5970852948        2.5052807096        0.5519486365
 C          6.1555708957        2.6477576470       -0.8634392919
 H          5.8901873413        3.6464684185       -1.2179524249
 H          7.2456132571        2.5927606871       -0.8258745668
 C          5.6483855903        1.6161189927       -1.8746294998
 H          4.5738538464        1.4727823256       -1.7460873097
 H          5.8015591448        2.0255360422       -2.8750822804
 C          6.3734050408        0.2656787046       -1.7745094634
 H          7.2615098035        0.3841584847       -1.1539410742
 H          6.7256799785       -0.0289769424       -2.7652068562
 C          5.5235549315       -0.8983695701       -1.2429606283
 H          5.0170974307       -1.3899309473       -2.0794634296
 H          6.1852663577       -1.6474274164       -0.7954854657
 H          6.1257952795        3.2106119084        1.1964218127
 H          4.5400931240        2.7843553925        0.5610503018
 H          6.6440668989        0.6165667112        0.8558510671
 H          5.7043665700        1.1838856849        2.2460108858
 O          3.5024555324        0.4898322011        1.6389208129
 C          2.2676576953       -0.1185948428        1.4859288997
 O          1.4303308035        0.2047751229        2.3497568023
 O          3.0103943767       -2.0624998610       -1.4725034381
 C          0.7604635499       -1.6861988218        0.2098233983
 C         -0.2459027126       -0.6341997746       -0.1846072227
 C         -0.2173391510       -0.1309072070       -1.4829007443
 C         -1.0871663853        0.8692636417       -1.8735289301
 C         -2.0035895090        1.3915941216       -0.9772602473
 C         -2.0406875605        0.8954897012        0.3189020616
 C         -1.1752630575       -0.1204865488        0.7058742234
 H         -1.2070526416       -0.4842271493        1.7204426013
 N         -2.9665934158        1.4217184501        1.2332540109
 S         -4.5384266851        1.6693484961        0.7239060579
 O         -4.6243747530        2.9035413453       -0.0170285117
 O         -5.3425451617        1.5970727715        1.9235948952
 C         -4.8979853904        0.2933313774       -0.3540119175
 C         -4.8471613013       -0.9796515587        0.1789143886
 C         -5.0898056533       -2.0631507648       -0.6491827359
 C         -5.3758572436       -1.8565618435       -1.9902461027
 C         -5.4275026513       -0.5724167235       -2.5091306731
 C         -5.1849612660        0.5152506331       -1.6852524186
 H         -5.2141118317        1.5298778621       -2.0477651697
 H         -5.6521117003       -0.4146213083       -3.5517118487
 H         -5.5603829043       -2.7024347126       -2.6335203434
 H         -5.0517096971       -3.0629984146       -0.2474673421
 H         -4.6280057425       -1.1053453509        1.2270052613
 H         -2.9247764171        1.0054506124        2.1511336583
 H         -2.6770562445        2.1853528086       -1.2570445797
 H         -1.0507527021        1.2505258394       -2.8826691193
 H          0.5078600462       -0.5294043348       -2.1787051020
 H          0.9091034055       -2.3541029015       -0.6493972315
 C          0.3514345175       -2.5170976101        1.4071082971
 C         -0.7256103891       -3.5477271592        1.2520435816
 C          0.6989780117       -3.9740391427        1.4373852368
 H          0.9892695649       -4.4136497959        2.3799615945
 H          1.2276318465       -4.3790924015        0.5870778642
 H         -1.4166217598       -3.7000648562        2.0670509422
 H         -1.1639572506       -3.6626927178        0.2724942934
 H          0.4110623581       -1.9772371557        2.3445535780
