  62
        -98.93794700
 C          2.3964398897        0.4933558985        0.4637213161
 C          3.1998236010        0.3954448023       -0.6995084636
 C          4.2259159841       -0.6584269278       -0.6743737462
 C          4.3229814629       -1.4839086151        0.3821964181
 C          5.2932615548       -2.6239440435        0.5331612617
 C          6.6762383056       -2.2032782667        1.0488977479
 C          7.5441181457       -1.4485046249        0.0411380749
 H          7.5958420767       -2.0158386747       -0.8886128680
 H          8.5537649766       -1.4082877533        0.4548000603
 C          7.0741544678       -0.0169685381       -0.2526441587
 H          7.9306634162        0.6604995830       -0.2245374601
 H          6.3843706618        0.3075180509        0.5300330279
 C          6.3990412215        0.1618912619       -1.6125669857
 H          7.1212420414       -0.0336809076       -2.4082859553
 H          6.0754152696        1.2021907825       -1.7003363531
 C          5.1743437150       -0.7356329459       -1.8328395029
 H          5.4881945491       -1.7655799646       -2.0004415853
 H          4.6443442147       -0.3809478499       -2.7200885761
 H          7.2052129048       -3.1131529115        1.3418288779
 H          6.5439278933       -1.5930243240        1.9453856878
 H          5.4013252470       -3.1421929430       -0.4200311336
 H          4.8514337059       -3.3131872894        1.2559777008
 O          3.5045992261       -1.3827814626        1.4639528569
 C          2.5449340710       -0.3890183980        1.5374351517
 O          1.8905032916       -0.3892743738        2.6005123284
 O          3.0838881608        1.1308267208       -1.7120098327
 C          1.3037646305        1.5372018402        0.6334023990
 C          0.0079331260        1.0137378891        0.0695176440
 C         -0.0921395240        0.6217767673       -1.2624401897
 C         -1.2854844008        0.1304726499       -1.7580907835
 C         -2.3959293165        0.0084269904       -0.9401190182
 C         -2.3052718442        0.3906082700        0.3911066192
 C         -1.1078166886        0.8957024751        0.8841484131
 H         -1.0371781891        1.1815155611        1.9252550788
 N         -3.4149650915        0.2412058813        1.2355480890
 S         -4.9359236616        0.6968570137        0.7015726124
 O         -4.8609869112        1.7891140104       -0.2405313701
 O         -5.6974511840        0.9396239190        1.9070238145
 C         -5.5658387341       -0.7628597286       -0.0995636147
 C         -5.5261681605       -1.9561220716        0.5946578497
 C         -6.0252119973       -3.0986158078       -0.0100463367
 C         -6.5556842108       -3.0285997413       -1.2897273168
 C         -6.5914273033       -1.8223200066       -1.9720736908
 C         -6.0928079092       -0.6757935086       -1.3731795329
 H         -6.0942101960        0.2821586170       -1.8685359924
 H         -7.0043922573       -1.7699732736       -2.9666556359
 H         -6.9431089444       -3.9198046004       -1.7576681509
 H         -5.9982134322       -4.0385512027        0.5173871328
 H         -5.1073933809       -1.9698547795        1.5871894819
 H         -3.2533144671        0.5252632367        2.1903259835
 H         -3.3262410151       -0.3772762009       -1.3237023993
 H         -1.3522084618       -0.1665536846       -2.7937923339
 H          0.7755578391        0.7086281903       -1.8987000891
 H          1.1729865692        1.6375451711        1.7225523949
 C          1.6967226369        2.9079219810        0.0984158439
 C          0.9916916504        3.6026807469       -1.0240629099
 C          0.8190286305        4.0920700803        0.3802124368
 H          1.2794182124        5.0244078943        0.6703712476
 H         -0.1304876863        3.9014812594        0.8591177535
 H          1.5939716069        4.1820289875       -1.7071122340
 H          0.1560856085        3.1083383600       -1.4937080957
 H          2.7664393386        3.0766628253        0.1637034670
