  62
        -98.94536831
 C         -1.9583626994       -0.9814001920       -0.0632061280
 C         -1.4747083006       -1.9889190723       -0.9361783438
 C         -0.3574201931       -2.7980332505       -0.4366873871
 C          0.1423430671       -2.5605740895        0.7891763762
 C          1.2763185268       -3.2988884676        1.4461780701
 C          2.6644933524       -2.7758367223        1.0537153211
 C          3.1153677345       -3.1324128623       -0.3627895603
 H          4.1807516644       -2.9034394450       -0.4275925006
 H          3.0013061167       -4.2051527927       -0.5237212937
 C          2.3831697209       -2.3659744373       -1.4727440198
 H          3.1061778365       -2.0046725625       -2.2084168555
 H          1.9011198548       -1.4758084758       -1.0594522738
 C          1.3416293397       -3.1844847591       -2.2370592892
 H          0.8594471066       -2.5195456608       -2.9589107240
 H          1.8388643877       -3.9825868784       -2.7938780477
 C          0.2485497726       -3.8103423892       -1.3605113972
 H         -0.5434629497       -4.1811379987       -2.0162946466
 H          0.6554876767       -4.6482546251       -0.7942831460
 H          3.3841051546       -3.1990889863        1.7578822376
 H          2.6772285514       -1.6901312213        1.1727024025
 H          1.1505551656       -3.1675633767        2.5227756932
 H          1.2064411963       -4.3618886879        1.2140134796
 O         -0.3585604648       -1.5980907011        1.6041687196
 C         -1.3828227942       -0.7575540590        1.1879381194
 O         -1.6714694977        0.1241187476        2.0189327084
 H         -0.6973981760        0.9428597705       -1.3813792037
 C         -1.2615847942        1.6976033320       -0.8534661909
 C         -2.5306962081        1.3879324686       -0.3776153079
 C         -3.2501718816        2.3710833716        0.2870357044
 C         -2.6939097235        3.6234079283        0.4867949071
 C         -1.4143749278        3.9134023512        0.0510297533
 C         -0.6857552660        2.9359062349       -0.6210345193
 N          0.6140246841        3.2091452332       -1.0747178282
 S          1.8476168603        2.1080388403       -1.2448557871
 O          2.9360859340        2.8814992981       -1.8024182029
 O          1.4100829024        0.9794227273       -2.0277559355
 C          2.3405129350        1.5442864299        0.3793290289
 C          1.4029806229        1.2551374216        1.3498426111
 C          1.8336733567        0.7777593645        2.5787795201
 C          3.1862010204        0.5945642006        2.8182221737
 C          4.1176489950        0.8920600619        1.8343778042
 C          3.6931063189        1.3698969694        0.6053370794
 H          4.3814568678        1.6168475816       -0.1864428832
 H          5.1699615987        0.7481455269        2.0191037873
 H          3.5132727325        0.2153031799        3.7734345123
 H          1.0938532844        0.5406611463        3.3270767466
 H          0.3496331245        1.3864181961        1.1590364285
 H          0.9732809840        4.1175976096       -0.8233434787
 H         -0.9759578353        4.8828801951        0.2320125616
 H         -3.2590845553        4.3800884763        1.0094359963
 H         -4.2324188523        2.1519263493        0.6717458282
 C         -3.0136050870       -0.0256781853       -0.5949043283
 H         -3.0250999819       -0.2143048581       -1.6823339488
 C         -4.4282704264       -0.2775907537       -0.0992804564
 C         -4.8500810728       -1.6401104242        0.3615649658
 C         -4.7466996035       -0.5154039416        1.3452964785
 H         -5.6616546444       -0.0990228391        1.7409743431
 H         -3.9258070293       -0.5131987260        2.0440008408
 H         -5.8306677819       -1.9957725675        0.0825049368
 H         -4.0957006362       -2.4133443385        0.3870460380
 H         -5.1621395993        0.2804986612       -0.6731650526
 O         -1.9527331628       -2.1968239812       -2.0838735257
