  62
        -98.94057582
 C         -1.7455981443       -0.3811053432        0.4179634163
 C         -2.9212447800       -0.5886609607        1.1833754297
 C         -4.1684028839       -0.7609555483        0.4273022974
 C         -4.1351610736       -0.6930652521       -0.9159019762
 C         -5.3372570993       -0.7899681469       -1.8090464236
 C         -5.9367389445        0.5960063786       -2.0855547345
 C         -6.1538657449        1.4379805774       -0.8281896154
 H         -5.1831950209        1.6798927665       -0.3890864122
 H         -6.6072171307        2.3807014737       -1.1422542279
 C         -7.0393483207        0.7743811545        0.2358371083
 H         -7.6134560427       -0.0369048093       -0.2132025335
 H         -7.7550290517        1.5118147906        0.6054909840
 C         -6.2789573708        0.2433391795        1.4524431534
 H         -5.6313288916        1.0281894345        1.8516028900
 H         -7.0084176334       -0.0034668144        2.2285075220
 C         -5.4261521126       -1.0086881142        1.2117856691
 H         -5.1023406749       -1.3813092277        2.1880864330
 H         -6.0329393983       -1.7802470038        0.7333783377
 H         -5.2597844792        1.1399466699       -2.7483661681
 H         -6.8875199147        0.4635249159       -2.6050559410
 H         -6.0806706013       -1.4319393446       -1.3404218748
 H         -5.0279666174       -1.2371129197       -2.7552037610
 O         -2.9942877850       -0.4740833129       -1.6155823300
 C         -1.7727938485       -0.3001194868       -0.9753299811
 O         -0.8246041803       -0.0864542650       -1.7520049406
 O         -2.9269414091       -0.6217522497        2.4431718581
 C         -0.4440164156       -0.1812908854        1.1728208718
 C          0.3035848230        1.0107593783        0.6305777145
 C         -0.3482132030        2.2408045496        0.5709875794
 C          0.2908764222        3.3574525831        0.0714079603
 C          1.6067507889        3.2810010524       -0.3524707072
 C          2.2707712020        2.0644261902       -0.2837297285
 C          1.6167536196        0.9381091068        0.1969207808
 H          2.1451954827        0.0004074552        0.2127094165
 N          3.6064850077        1.9408178257       -0.6990500713
 S          4.6728105743        1.1074838309        0.2873711836
 O          4.3182240910        1.2437366150        1.6813763375
 O          5.9816535440        1.6016972341       -0.0853695636
 C          4.5442687012       -0.5959544767       -0.2124306503
 C          4.4554044983       -1.5771754845        0.7551059229
 C          4.4030672944       -2.9051074385        0.3613780166
 C          4.4417843775       -3.2264855596       -0.9869839421
 C          4.5314667291       -2.2288018613       -1.9459601379
 C          4.5869367162       -0.8995989747       -1.5585629870
 H          4.6581439796       -0.0990970205       -2.2755735643
 H          4.5572646778       -2.4832063698       -2.9932601191
 H          4.3982201105       -4.2603968680       -1.2915478453
 H          4.3303011611       -3.6818832980        1.1060872697
 H          4.4192676171       -1.2811710829        1.7915744822
 H          4.0198328786        2.7912958392       -1.0533837033
 H          2.1113642959        4.1545528913       -0.7371833017
 H         -0.2338202205        4.2998919879        0.0195641945
 H         -1.3732177724        2.3050424113        0.9115535336
 H         -0.7611948972        0.0642795985        2.2011361470
 C          0.4165231755       -1.4320696205        1.2751558926
 C         -0.1893424226       -2.8004446451        1.1955522891
 C          0.6944020942       -2.3077097093        0.0912100193
 H          1.6811853627       -2.7356991852       -0.0079811460
 H          0.2424175852       -2.0301816931       -0.8476613934
 H          0.1882582203       -3.5654333594        1.8570879619
 H         -1.2515892305       -2.8684760698        1.0106272296
 H          1.2257788933       -1.3072700266        1.9891497471
