  62
        -98.94471365
 C         -2.0681241091       -0.4197508621       -0.1554006294
 C         -3.0613349163       -0.7895565458        0.7876598564
 C         -4.2271954154        0.0949252769        0.8783827147
 C         -4.2822458913        1.2041976909        0.1192713594
 C         -5.3882736134        2.2242835878        0.1199729019
 C         -6.5822818429        1.8516946422       -0.7696722939
 C         -7.4680242737        0.7265365142       -0.2329977401
 H         -8.3771381549        0.7191168749       -0.8376338006
 H         -7.7612657374        0.9545236367        0.7922440059
 C         -6.8261510234       -0.6667488306       -0.2898607215
 H         -5.9753223857       -0.6478817820       -0.9747706313
 H         -7.5456834644       -1.3826966813       -0.6933688694
 C         -6.3604370271       -1.2062921933        1.0625134331
 H         -5.8904766993       -2.1794468894        0.8995429945
 H         -7.2237294064       -1.3543976965        1.7150000000
 C         -5.3497131653       -0.3073619661        1.7866546531
 H         -4.9192840772       -0.8733663767        2.6163240977
 H         -5.8495631663        0.5743306168        2.1872458372
 H         -6.2087282062        1.5809722926       -1.7599657962
 H         -7.1973743432        2.7477242002       -0.8805682713
 H         -4.9542998254        3.1529436773       -0.2571229938
 H         -5.7318698269        2.3915983109        1.1412325173
 O         -3.2944167252        1.5432183310       -0.7494061853
 C         -2.1750380096        0.7399686861       -0.9231611061
 O         -1.3778411055        1.1723518042       -1.7780685148
 O         -2.9760015752       -1.8120038202        1.5179672552
 C         -0.8465292485       -1.3166894909       -0.2796801130
 C          0.3304695515       -0.6121209450        0.3486743943
 C          0.5694839941       -0.7621264218        1.7117493127
 C          1.6072675107       -0.0859229069        2.3261122442
 C          2.4258537118        0.7576712570        1.5959779483
 C          2.1943592444        0.9147332083        0.2355752364
 C          1.1631347508        0.2204012144       -0.3840535372
 H          0.9809549742        0.3681827311       -1.4366397044
 N          3.0103888986        1.7780472388       -0.5110806339
 S          4.6592300461        1.7608010846       -0.2506078387
 O          4.9762093645        2.5276500571        0.9291281969
 O          5.2441654572        2.2337568142       -1.4856374978
 C          5.0725367160        0.0458079043        0.0181295664
 C          4.8079105049       -0.8526898547       -0.9965591125
 C          5.0973718536       -2.1925818882       -0.7975805677
 C          5.6420738963       -2.6096167820        0.4074835932
 C          5.9051587724       -1.6949565960        1.4149712622
 C          5.6172571227       -0.3532418787        1.2214292629
 H          5.8052802621        0.3911227963        1.9779319995
 H          6.3304734459       -2.0217661288        2.3501304206
 H          5.8633739294       -3.6540882348        0.5604222986
 H          4.8951806470       -2.9058163029       -1.5803744772
 H          4.3890997778       -0.4949747573       -1.9234055432
 H          2.7757359739        1.8257987121       -1.4908506143
 H          3.2252037141        1.3108144217        2.0616943896
 H          1.7784911602       -0.2108357257        3.3844163411
 H         -0.0815399160       -1.4044252348        2.2876486029
 H         -1.0767043053       -2.1988067014        0.3325645522
 C         -0.5972776538       -1.7675073519       -1.7038361841
 C          0.3312577789       -2.9171065915       -1.9531728556
 C         -1.1434507648       -3.0866665261       -2.1579874410
 H         -1.5202338742       -3.1676816885       -3.1667214167
 H         -1.6957712980       -3.6736891775       -1.4388753477
 H          0.9689719210       -2.8851308907       -2.8231278138
 H          0.7803149291       -3.3885138511       -1.0923311991
 H         -0.6077917830       -0.9582210690       -2.4229831283
