  62
        -98.93904167
 C          2.2086910391        1.1495637978        0.4526767694
 C          2.3034903540        0.2367699493       -0.6222901988
 C          3.0949601001       -0.9885422350       -0.3863507458
 C          3.6490699307       -1.1805819837        0.8252692541
 C          4.5268979651       -2.3163098443        1.2794900220
 C          5.9615923358       -2.2086026858        0.7369925751
 C          6.0658867584       -1.8227357859       -0.7361801336
 H          7.1239219114       -1.6707565989       -0.9649502021
 H          5.5598518571       -0.8685698793       -0.8935775180
 C          5.5196787200       -2.8547327184       -1.7198906940
 H          6.0571460569       -3.7962947816       -1.5870599308
 H          5.7344769237       -2.4886860486       -2.7270135196
 C          4.0184702873       -3.1370881750       -1.6288998673
 H          3.7903015232       -3.7825902811       -0.7848252367
 H          3.7357964730       -3.6930906025       -2.5276900712
 C          3.1354889664       -1.8933270942       -1.5940762492
 H          2.0949537184       -2.1981954922       -1.7651770310
 H          3.3885668286       -1.2498220597       -2.4443904157
 H          6.4646502137       -3.1626335225        0.9027729287
 H          6.4845193375       -1.4451718699        1.3180475530
 H          4.5632860947       -2.2677389572        2.3701556057
 H          4.0780761969       -3.2668045961        1.0061833250
 O          3.5016224112       -0.2845620614        1.8440817461
 C          2.7829764185        0.8853730762        1.6940701267
 O          2.7197516950        1.5911604479        2.7222880936
 H         -0.1433851991        0.6927320528        1.5301550921
 C         -0.6725092388        1.1613444241        0.7080780503
 C         -0.0130342085        2.1119996723       -0.0619099453
 C         -0.7020096058        2.7061173143       -1.1103168895
 C         -2.0082721627        2.3395112910       -1.3864204672
 C         -2.6563282866        1.3858001161       -0.6237237438
 C         -1.9789569405        0.7910396749        0.4330218740
 N         -2.6341119209       -0.1728169683        1.2238897286
 S         -3.2963877295       -1.4989241103        0.4291910823
 O         -3.3352442637       -2.5516317772        1.4217564085
 O         -2.5880956333       -1.7957112889       -0.7944865866
 C         -4.9615552928       -0.9824237412        0.0680327759
 C         -5.4169483954       -0.9835059099       -1.2357563632
 C         -6.7187229079       -0.5802230407       -1.4905558131
 C         -7.5368792611       -0.1861377440       -0.4428752535
 C         -7.0646915823       -0.1933657329        0.8613612565
 C         -5.7649425373       -0.5960765014        1.1231129085
 H         -5.3594543662       -0.6201881165        2.1208087045
 H         -7.7038516614        0.1137080396        1.6733898959
 H         -8.5487544100        0.1283351189       -0.6440744609
 H         -7.0874898474       -0.5742373658       -2.5036751542
 H         -4.7419168436       -1.2924504606       -2.0180520454
 H         -2.0811096995       -0.4855829468        2.0094334629
 H         -3.6711061076        1.0940959845       -0.8396639468
 H         -2.5287625746        2.8031983016       -2.2104013720
 H         -0.2128233601        3.4472990326       -1.7203683613
 C          1.4189254685        2.4361278709        0.2901463696
 H          1.4254248549        2.9219067893        1.2771176197
 C          2.1008149164        3.3482297028       -0.7076548231
 C          1.9464039051        4.8345770288       -0.5986246614
 C          3.2519357401        4.1889066236       -0.2465501394
 H          4.0920340723        4.3224718459       -0.9114113799
 H          3.5278835969        4.1212561328        0.7960090744
 H          1.3372791394        5.2158065676        0.2068371767
 H          1.8932178189        5.4156641040       -1.5067720493
 H          2.1668328756        2.9075457603       -1.6956836465
 O          1.7603481974        0.4311281783       -1.7412866171
