  62
        -98.93971631
 C         -1.7557451890       -0.7238767513        0.1973185328
 C         -3.0564462766       -0.9055297124        0.7224038663
 C         -3.9602368682        0.2540897833        0.6449424088
 C         -3.5153651082        1.4011853846        0.1035172580
 C         -4.2434938193        2.7141871820       -0.0410184776
 C         -5.7064837651        2.6673713790       -0.5031265039
 C         -6.0470111687        1.5245942923       -1.4707934325
 H         -6.5628234814        1.9374061824       -2.3398361193
 H         -5.1313755564        1.0520108727       -1.8305703413
 C         -6.9566325017        0.4640597114       -0.8456868994
 H         -7.4496755261       -0.0921166768       -1.6466664300
 H         -7.7366609270        0.9669795861       -0.2698388184
 C         -6.2549914117       -0.5574482492        0.0485073358
 H         -7.0228029508       -1.1771193889        0.5180569753
 H         -5.6373034168       -1.2217955311       -0.5620606154
 C         -5.3574926477        0.0324799026        1.1485359754
 H         -5.7865013902        0.9423235878        1.5611558972
 H         -5.2760062893       -0.7089020549        1.9481162741
 H         -5.9155456560        3.6246845818       -0.9835885728
 H         -6.3614255802        2.6032696690        0.3647084012
 H         -4.1882528291        3.2403521517        0.9164093007
 H         -3.6519011603        3.2883317125       -0.7580837336
 O         -2.2486066939        1.5339889504       -0.3828183251
 C         -1.3427369789        0.4859256744       -0.3558408288
 O         -0.2291046962        0.7582542096       -0.8418380003
 H          1.8833518027       -1.9549794569       -0.5618803783
 C          1.7378415851       -1.5918957401        0.4411677567
 C          0.4675778181       -1.4884227776        0.9847551977
 C          0.3364764165       -1.0077602541        2.2862994861
 C          1.4454409439       -0.6320022955        3.0179594544
 C          2.7114473527       -0.7184200278        2.4638066791
 C          2.8542732983       -1.1998176729        1.1692768711
 N          4.1295231922       -1.3214951820        0.5829498081
 S          4.4540364142       -0.5066369232       -0.8446099826
 O          3.5630444864       -0.9563152055       -1.8810946372
 O          5.8657800985       -0.7246932313       -1.0769317879
 C          4.1792650992        1.2107806329       -0.4476530002
 C          5.2724693500        1.9895656443       -0.1175043011
 C          5.0709694721        3.3063681755        0.2611368211
 C          3.7826869790        3.8177056779        0.3139886335
 C          2.6976971755        3.0210937273       -0.0162185859
 C          2.8903386195        1.7026226401       -0.4014812201
 H          2.0527446486        1.0755834618       -0.6644121121
 H          1.6913394507        3.4075651651        0.0211953725
 H          3.6222930284        4.8418889604        0.6124032793
 H          5.9145770172        3.9276629722        0.5155622600
 H          6.2551960860        1.5499690592       -0.1762610571
 H          4.8879688954       -1.1597530392        1.2314998050
 H          3.5806282293       -0.4202581521        3.0304733751
 H          1.3255535243       -0.2626391575        4.0251786291
 H         -0.6538245949       -0.9333065771        2.7149484575
 C         -0.7776456627       -1.8838738083        0.2317365124
 H         -1.2852526220       -2.6770523295        0.8008411958
 C         -0.5081802029       -2.3907037069       -1.1691649125
 C         -0.1027494667       -3.8168289026       -1.3864037567
 C         -1.4703019215       -3.3562884569       -1.7906750735
 H         -1.6931910773       -3.2577543008       -2.8426460911
 H         -2.3136173153       -3.6699135449       -1.1925788035
 H          0.6182725262       -4.0331226734       -2.1604983809
 H         -0.0175554994       -4.4497575737       -0.5159792247
 H         -0.0733349951       -1.6352945150       -1.8153492061
 O         -3.4419390958       -1.9842298696        1.2472819267
