  62
        -98.93597160
 C         -2.3350550539       -0.0918578016       -0.2661537572
 C         -3.3368210582        0.7633624951        0.2587024901
 C         -4.6091204539        0.1118639306        0.6085463781
 C         -4.7503511716       -1.2173610957        0.4680577179
 C         -5.9740784795       -2.0227165716        0.8118119477
 C         -7.0405079393       -2.0402617826       -0.2919298475
 C         -7.8127061183       -0.7326156090       -0.4717012429
 H         -8.6656972794       -0.9506787342       -1.1174063431
 H         -8.2078516418       -0.4100796113        0.4920158991
 C         -6.9952393645        0.4039307666       -1.1014067955
 H         -7.5845686026        0.8858354393       -1.8848734492
 H         -6.1049364730       -0.0101740368       -1.5806284702
 C         -6.5664655421        1.4952156181       -0.1204524073
 H         -7.4500368615        2.0074091317        0.2667383130
 H         -5.9637363532        2.2272636639       -0.6639879260
 C         -5.7372426392        0.9870616923        1.0660550789
 H         -5.3019896237        1.8507435874        1.5744244085
 H         -6.3745635371        0.4505096177        1.7683620569
 H         -6.5619287512       -2.3138628700       -1.2351833648
 H         -7.7550527186       -2.8277654447       -0.0415582727
 H         -5.6337694083       -3.0470187419        0.9781040852
 H         -6.4122537922       -1.6471670531        1.7369033245
 O         -3.7498653876       -2.0106761221       -0.0017962944
 C         -2.5394458667       -1.4681601905       -0.3969927142
 O         -1.7298022474       -2.3062056625       -0.8458612580
 O         -3.1997508090        1.9990594575        0.4402919144
 C         -0.9733776774        0.4028298082       -0.7233132589
 C          0.0220709856        0.4367461179        0.4074328951
 C         -0.2953868628        0.9881749141        1.6447960053
 C          0.6506471529        1.0364380185        2.6524459243
 C          1.9324845534        0.5600856920        2.4408914964
 C          2.2573074304        0.0019197098        1.2102272300
 C          1.2978708348       -0.0693884433        0.2098628715
 H          1.5605993064       -0.5227447623       -0.7349396039
 N          3.5440858269       -0.4993093146        0.9595660939
 S          4.1753001734       -0.2778543387       -0.5926778240
 O          3.8221694583        1.0354616566       -1.0813755807
 O          3.7818167924       -1.3922685835       -1.4179362278
 C          5.9240766658       -0.3631644934       -0.2558297662
 C          6.6213671632        0.8070364398       -0.0206685013
 C          7.9746280379        0.7339072342        0.2696588475
 C          8.6033465960       -0.5011426969        0.3225465821
 C          7.8903508137       -1.6666433900        0.0833631157
 C          6.5370931737       -1.6009397534       -0.2083243948
 H          5.9440596803       -2.4778155711       -0.4102279806
 H          8.3833495603       -2.6246022108        0.1217230407
 H          9.6566487341       -0.5556227247        0.5479431337
 H          8.5323518577        1.6383177139        0.4519828738
 H          6.0930941433        1.7449190487       -0.0827815950
 H          4.2104754970       -0.2580548753        1.6803088069
 H          2.6738968587        0.6138994961        3.2235911287
 H          0.3914233239        1.4660052999        3.6084665993
 H         -1.2844879473        1.3902120054        1.8024309336
 H         -0.6179487843       -0.3523205343       -1.4441081795
 C         -1.0389464148        1.7307558436       -1.4677093160
 C         -0.5548741686        3.0267064819       -0.8987310350
 C          0.2162674036        2.3610865035       -1.9963200066
 H          0.1949167743        2.7981698994       -2.9835998000
 H          1.1610092188        1.9000521893       -1.7433043624
 H         -1.1249641614        3.9148664659       -1.1242603067
 H         -0.1346392983        3.0212607580        0.0944206502
 H         -1.9134597404        1.7867406428       -2.1089475050
