  62
        -98.94400701
 C         -1.4999336381       -1.0801394107        0.8886804229
 C         -2.2909294293       -0.5679909946       -0.1707452482
 C         -2.8577182124        0.7711331791        0.0413821920
 C         -2.5338500242        1.4737675111        1.1399658856
 C         -3.0229884085        2.8523016741        1.4915842255
 C         -2.2422136594        3.9804038100        0.8036188495
 C         -2.5389151041        4.1647002507       -0.6852054765
 H         -3.6177615114        4.2154735226       -0.8388669638
 H         -2.1215032379        5.1309208949       -0.9761038112
 C         -1.9362268602        3.0816685686       -1.5910197912
 H         -1.1351895986        2.5587969232       -1.0626379529
 H         -1.4740549527        3.5543863773       -2.4617746567
 C         -2.9410673972        2.0566076546       -2.1172703461
 H         -2.3893501111        1.3040674087       -2.6868393781
 H         -3.6440222299        2.5471814888       -2.7956270134
 C         -3.7434811344        1.3322600921       -1.0300486358
 H         -4.4802070524        2.0080548049       -0.5951970677
 H         -4.2683720868        0.4954405210       -1.4984758180
 H         -2.4890104399        4.9110700509        1.3205158381
 H         -1.1727008424        3.7975060484        0.9346006158
 H         -4.0825083764        2.9399395839        1.2481983775
 H         -2.9040624666        2.9589255829        2.5721546124
 O         -1.7038649721        0.9823535280        2.0972946410
 C         -1.1578307542       -0.2865152750        1.9859277267
 O         -0.3872389431       -0.5877514526        2.9211034606
 O         -2.5349372174       -1.1859303607       -1.2386655122
 C         -0.8020448061       -2.4304376875        0.7929345293
 C         -0.0361323229       -2.4458926559       -0.5065086603
 C         -0.2558641465       -3.3321971906       -1.5500288375
 C          0.4394792105       -3.1842517784       -2.7389347375
 C          1.3401195012       -2.1500404587       -2.9162040973
 C          1.5745729522       -1.2639293942       -1.8687735570
 C          0.9139171205       -1.4447715054       -0.6676417153
 H          1.0875095103       -0.7587570086        0.1470226708
 N          2.4822652944       -0.2056822628       -2.0014189606
 S          2.3885628652        1.1695933079       -1.0557196199
 O          1.0316707335        1.5312004299       -0.7213509988
 O          3.1415622177        2.1559482075       -1.8028915636
 C          3.3144136997        0.7301929182        0.3999622644
 C          4.6406745162        0.3815673594        0.2302886165
 C          5.3902326654        0.0310769145        1.3406508637
 C          4.8037662514        0.0328203523        2.5979585964
 C          3.4733743657        0.3886475774        2.7530260239
 C          2.7198080331        0.7442453243        1.6448551007
 H          1.6786618282        1.0161094910        1.7377656930
 H          3.0064729796        0.3849441047        3.7251684236
 H          5.3849004795       -0.2441730187        3.4633484520
 H          6.4259466712       -0.2445523220        1.2245299492
 H          5.0577163319        0.3990537131       -0.7627778448
 H          2.8070062583       -0.0195544952       -2.9378527076
 H          1.8509825583       -2.0189567987       -3.8579122598
 H          0.2570518357       -3.8714839000       -3.5513715807
 H         -0.9928149244       -4.1117661759       -1.4473633657
 H         -0.0669370374       -2.4213789330        1.6147661033
 C         -1.6813378210       -3.6481899929        1.0188059763
 C         -2.8924616804       -3.5644925069        1.8987504307
 C         -3.0491744328       -3.8002898105        0.4279543442
 H         -3.3526888979       -4.7842411969        0.1003457006
 H         -3.4217961299       -2.9994866501       -0.1892611665
 H         -3.0939534254       -4.3784862692        2.5788908613
 H         -3.1546962806       -2.5913051335        2.2890605026
 H         -1.0892844198       -4.5547094061        1.1035763844
