  62
        -98.94043883
 C          1.4738476819        1.5649407679       -0.0947043288
 C          1.4725962672        0.1810711526        0.1954316027
 C          2.7787098218       -0.4223672910        0.5206470407
 C          3.8813266605        0.3493654790        0.5234096545
 C          5.3268404037        0.0198452973        0.8338209341
 C          5.7923803304       -1.4310053643        0.9262861807
 C          5.7744705013       -2.1956449996       -0.3973516350
 H          6.5573427681       -1.7888655473       -1.0426535770
 H          6.0233732058       -3.2391190029       -0.1920031429
 C          4.4626559312       -2.1410253382       -1.1766602794
 H          4.2516853948       -1.1096687563       -1.4666832589
 H          4.5994563138       -2.7124927784       -2.0988994868
 C          3.2453656971       -2.7114141158       -0.4515980868
 H          2.4215640911       -2.7430012498       -1.1692166129
 H          3.4550021219       -3.7341894904       -0.1325902010
 C          2.7651064165       -1.9036843368        0.7657819257
 H          1.7204145607       -2.1666133385        0.9567519941
 H          3.3359647053       -2.1529102038        1.6567307815
 H          5.2211095143       -1.9613399103        1.6823289593
 H          6.8283145108       -1.4030561417        1.2752957004
 H          5.9204619116        0.5386122787        0.0741619165
 H          5.5472883909        0.5155944243        1.7857254010
 O          3.8251519112        1.6894512237        0.2587851842
 C          2.6379838449        2.3272623002       -0.0563430265
 O          2.7500990725        3.5514565121       -0.2715869345
 H         -2.3451431705        1.1150932946       -0.7094043238
 C         -2.0787560343        1.3620678648        0.3035369462
 C         -0.8644226607        1.9630018232        0.5907748490
 C         -0.5798893046        2.2951199720        1.9133603505
 C         -1.4805027238        2.0130108272        2.9214116131
 C         -2.6774841278        1.3790294145        2.6355959074
 C         -2.9745991401        1.0532602197        1.3182647819
 N         -4.1824020155        0.4216943752        0.9953712429
 S         -4.2997976252       -0.6212576097       -0.3015840846
 O         -4.3297199475        0.1243644826       -1.5358653637
 O         -5.4898069088       -1.3964108729       -0.0150030446
 C         -2.8756004379       -1.6933995374       -0.2604864273
 C         -2.6002242696       -2.3844413189        0.9015316578
 C         -1.5239566616       -3.2547979565        0.9230084954
 C         -0.7486650746       -3.4236442509       -0.2127412139
 C         -1.0392392755       -2.7236894081       -1.3714739900
 C         -2.1116554946       -1.8485000179       -1.3974727507
 H         -2.3667523036       -1.2784610330       -2.2773707418
 H         -0.4284046681       -2.8483029218       -2.2520144174
 H          0.0925734421       -4.0991806761       -0.1929431968
 H         -1.2879158544       -3.7941782343        1.8266698048
 H         -3.2237105869       -2.2382886720        1.7689909571
 H         -4.7346246891        0.1139956968        1.7814987332
 H         -3.3752834935        1.1415338768        3.4239484362
 H         -1.2450159610        2.2757447061        3.9418796137
 H          0.3658202923        2.7698912360        2.1389089688
 C          0.1715399490        2.2505535540       -0.4672511699
 H          0.3787577011        3.3303173289       -0.4725463768
 C         -0.2531650476        1.8255122148       -1.8574296308
 C         -1.1474129124        2.7069479284       -2.6747581874
 C          0.2957738505        2.5499280056       -3.0477462484
 H          0.5422225302        1.9794311244       -3.9307725744
 H          0.9674491940        3.3751866820       -2.8602531852
 H         -1.8990058319        2.2452440853       -3.2978023049
 H         -1.4590697497        3.6434275431       -2.2371142374
 H         -0.3799940850        0.7517287409       -1.9423950808
 O          0.4319401417       -0.5231778896        0.1897420075
