  62
        -98.94848944
 C          2.3549858089        0.6267463236        0.1708777414
 C          1.5431806450        0.0187814342       -0.8162228343
 C          1.6876427645       -1.4364093093       -0.9665008861
 C          2.5423203079       -2.1014805782       -0.1698873646
 C          2.7901112131       -3.5811807478       -0.2153723764
 C          1.8786959600       -4.3430138834        0.7552067676
 C          0.3994118294       -3.9745565344        0.6390333619
 H         -0.1502161439       -4.6184477347        1.3301229620
 H          0.2493265716       -2.9476553568        0.9817135613
 C         -0.1859331431       -4.1232912830       -0.7722076738
 H          0.4506441091       -4.7733603788       -1.3744803716
 H         -1.1626317367       -4.6054996293       -0.6925769214
 C         -0.4040450359       -2.7952409339       -1.4996468112
 H         -0.9186004200       -2.1051508558       -0.8264097022
 H         -1.0609872922       -2.9758154486       -2.3550260292
 C          0.8612089264       -2.1064542400       -2.0280530186
 H          1.4637261069       -2.8235935340       -2.5902702164
 H          0.5472771241       -1.3110858024       -2.7103254939
 H          2.2034859266       -4.1311482772        1.7767044952
 H          2.0034461810       -5.4127837608        0.5742005152
 H          3.8302034514       -3.7605522850        0.0640769584
 H          2.6313742374       -3.9366467450       -1.2318776122
 O          3.2769002472       -1.4918253849        0.7963805835
 C          3.1792105141       -0.1267330344        1.0089159433
 O          3.8725700493        0.2946850314        1.9577594642
 O          0.7453831010        0.6533653545       -1.5548824348
 C          2.2884749225        2.1208420491        0.4437038666
 C          0.8470878524        2.5690745871        0.4433913572
 C          0.3584083968        3.6324173140       -0.3043974182
 C         -0.9862063137        3.9603056731       -0.2615395326
 C         -1.8729602701        3.2212714780        0.4993688638
 C         -1.3925447035        2.1545570097        1.2505103679
 C         -0.0397944642        1.8617423234        1.2464501179
 H          0.3204422906        1.0320304499        1.8381564713
 N         -2.2553686632        1.3396525196        2.0149607658
 S         -2.3907053064       -0.2631607202        1.5379863117
 O         -3.3120126331       -0.8610963089        2.4812151305
 O         -1.0843105029       -0.8618829605        1.4576747267
 C         -3.1688867316       -0.1884003250       -0.0667323002
 C         -2.4363574873        0.2239401721       -1.1621863684
 C         -3.0784731136        0.3299903101       -2.3872299399
 C         -4.4268127788        0.0288282798       -2.4965220389
 C         -5.1474377777       -0.3813584015       -1.3847061029
 C         -4.5153084383       -0.4870581272       -0.1568665299
 H         -5.0317839059       -0.8036908511        0.7349707558
 H         -6.1959331119       -0.6173468441       -1.4701621219
 H         -4.9176041575        0.1134528594       -3.4533566884
 H         -2.5107657782        0.6494048227       -3.2464073536
 H         -1.3847311310        0.4477457215       -1.0653681998
 H         -3.1834531100        1.7255624141        2.1264091059
 H         -2.9265616220        3.4575265480        0.5082290629
 H         -1.3516331454        4.7892131783       -0.8483188846
 H          1.0240845873        4.1924861472       -0.9401517710
 H          2.6756150382        2.2389682554        1.4700200199
 C          3.1833677780        2.9581226720       -0.4589507339
 C          4.3973679319        2.3671186386       -1.1098558599
 C          3.2181064134        2.7629348213       -1.9439137276
 H          3.3087771046        3.6352461471       -2.5744421855
 H          2.5954222713        1.9853318935       -2.3563920590
 H          5.2927922274        2.9683937384       -1.1609837517
 H          4.5880337043        1.3149083885       -0.9542685726
 H          3.2868298538        3.9761236477       -0.0961954613
