  62
        -98.93209250
 C          2.1844684592       -0.8778166519       -0.6175665961
 C          3.3273813411       -0.9869890375        0.2115682908
 C          4.4162249739       -0.0304830892       -0.0543586151
 C          4.2723632279        0.8834099027       -1.0297787832
 C          5.2534133941        1.9719684653       -1.3611717717
 C          5.1463887604        3.1132066254       -0.3295490069
 C          6.3933332983        3.3006079656        0.5351818218
 H          7.1655234551        3.7940839664       -0.0586872178
 H          6.1255677720        3.9737144053        1.3523811473
 C          6.9982018634        2.0209456920        1.1204727038
 H          7.5945900493        1.5156536771        0.3594179208
 H          7.6916147481        2.3278879175        1.9062951757
 C          6.0000658040        1.0157263492        1.7091873562
 H          5.0791674222        1.5170692913        2.0076863177
 H          6.4393378656        0.5920460520        2.6145412229
 C          5.6592544418       -0.1658202502        0.7819876639
 H          6.5125806580       -0.3782827333        0.1322666393
 H          5.4855347161       -1.0529693382        1.3977811387
 H          4.9444127325        4.0525794891       -0.8465611224
 H          4.2830379936        2.9162775499        0.3097288756
 H          6.2618411014        1.5643836597       -1.3780156265
 H          5.0070591269        2.3370007074       -2.3584698101
 O          3.1543398876        0.9680043856       -1.7980682702
 C          2.0982756355        0.0926511233       -1.6205092199
 O          1.1520570230        0.2708319858       -2.4156676385
 H         -1.5855001103       -0.9906616078       -0.7212918354
 C         -1.2537287484       -1.0033262677        0.3062493329
 C          0.0492834692       -1.3734070245        0.6078886227
 C          0.4594857273       -1.3639638420        1.9369742120
 C         -0.4184384164       -0.9826276396        2.9347689644
 C         -1.7155919377       -0.6098451728        2.6305978275
 C         -2.1387374327       -0.6251116397        1.3062584440
 N         -3.4691502848       -0.3038908206        0.9847252685
 S         -3.8206193984        0.4641484035       -0.4756820751
 O         -3.7408546630       -0.5027798902       -1.5413222811
 O         -3.0173821976        1.6582778443       -0.6192906402
 C         -5.5279350774        0.8923202338       -0.1888481999
 C         -5.8641306701        2.1900793316        0.1457761499
 C         -7.1939330932        2.4962334674        0.3905063004
 C         -8.1587167007        1.5043920716        0.2999855035
 C         -7.8059707892        0.2059964480       -0.0377799471
 C         -6.4789299120       -0.1063368279       -0.2852966255
 H         -6.1585389079       -1.0976761955       -0.5599871236
 H         -8.5591115628       -0.5619413309       -0.1098972994
 H         -9.1925024147        1.7453074863        0.4910528798
 H         -7.4713501628        3.5052181280        0.6498989572
 H         -5.0807153548        2.9291519091        0.1972531523
 H         -3.9548769250        0.1422913747        1.7514267763
 H         -2.3986010581       -0.3132519017        3.4122439692
 H         -0.0877129284       -0.9727098759        3.9624582676
 H          1.4730431016       -1.6465098473        2.1756245400
 C          0.9783326277       -1.7973236410       -0.5051324375
 H          0.4306670139       -1.6778567463       -1.4506153575
 C          1.3512992940       -3.2602983315       -0.3535085276
 C          0.3414684825       -4.3025141801       -0.7237271530
 C          1.5543511462       -4.0952561841       -1.5796982963
 H          2.3303938188       -4.8457112144       -1.5688543858
 H          1.4255627812       -3.6136143639       -2.5386531114
 H         -0.6107720228       -3.9615676010       -1.1029229205
 H          0.2821185365       -5.1979425028       -0.1244920851
 H          1.9932818892       -3.4552654026        0.4948366318
 O          3.4603738272       -1.8350533233        1.1332002146
