  62
        -98.93927800
 C         -2.0625442898       -1.3808868823        0.6810601906
 C         -1.8272026423       -0.0454262761        1.1063270830
 C         -2.9127268135        0.9127323115        0.8824927762
 C         -4.0696052003        0.4880647534        0.3434681677
 C         -5.2893031527        1.3311699042        0.0867508872
 C         -5.2536700237        2.0908939193       -1.2461973941
 C         -4.2752128681        3.2648151336       -1.2976796176
 H         -4.5048215877        3.8334080116       -2.2010881020
 H         -4.4531879821        3.9218951691       -0.4458697213
 C         -2.7968581720        2.8526176929       -1.3346495927
 H         -2.7195330854        1.8000876986       -1.6167640953
 H         -2.2788837024        3.4272695629       -2.1056892581
 C         -2.0412531264        3.0696887720       -0.0233140916
 H         -1.9872435985        4.1389265719        0.1926680750
 H         -1.0238426226        2.6925063607       -0.1516067638
 C         -2.6542573285        2.3562674999        1.1888465016
 H         -1.9363568785        2.3975323424        2.0113146126
 H         -3.5735076823        2.8534879787        1.4976937906
 H         -5.0169294546        1.3836534721       -2.0446346762
 H         -6.2600321932        2.4742656527       -1.4303542651
 H         -6.1420201956        0.6488374189        0.0709155332
 H         -5.4247697900        2.0375285353        0.9062861071
 O         -4.2699846459       -0.8037975153       -0.0214647425
 C         -3.2631642624       -1.7630074089        0.0839348598
 O         -3.5942114329       -2.8718513471       -0.3731760987
 O         -0.7525100419        0.3184902084        1.6526844470
 C         -0.8851182564       -2.3228952237        0.8707153218
 C          0.2221690736       -1.9057050974       -0.0652710843
 C         -0.0428633715       -1.6110687769       -1.3982291488
 C          0.9710653206       -1.1917796710       -2.2401188674
 C          2.2657796136       -1.0551779662       -1.7706320896
 C          2.5402169646       -1.3446928525       -0.4407823099
 C          1.5203542992       -1.7701616227        0.4006875992
 H          1.7364305611       -1.9751651717        1.4401924991
 N          3.8526376385       -1.2049004826        0.0466672281
 S          4.6336296056        0.2548446243       -0.2128629337
 O          4.9991777035        0.3600225973       -1.6026793563
 O          5.7247505583        0.2669222279        0.7347729242
 C          3.4348829470        1.5049871014        0.2072363542
 C          3.1561970262        1.7121849263        1.5434636507
 C          2.2021198529        2.6528307785        1.8920661497
 C          1.5440198344        3.3649942898        0.9020926343
 C          1.8320661977        3.1424976075       -0.4353137908
 C          2.7841053993        2.2006324720       -0.7905367973
 H          3.0380022016        2.0004181399       -1.8186293143
 H          1.3153225655        3.6973993224       -1.2022890162
 H          0.8000870979        4.0962826865        1.1760616271
 H          1.9694349771        2.8233570252        2.9306812783
 H          3.6975812048        1.1488423491        2.2866640392
 H          3.9523272603       -1.4791004100        1.0137169772
 H          3.0652095998       -0.7211273724       -2.4117440865
 H          0.7514632067       -0.9649269720       -3.2725941253
 H         -1.0568935136       -1.7044416644       -1.7626115607
 H         -0.5240550574       -2.1378925173        1.8964664767
 C         -1.2119835074       -3.8027105364        0.7734229960
 C         -0.9167394738       -4.6287541387       -0.4383303133
 C         -0.1103221809       -4.8203902237        0.8093763311
 H         -0.2577079265       -5.7189438804        1.3889407980
 H          0.9073480821       -4.4594490373        0.8025278953
 H         -1.6383564437       -5.3809027635       -0.7174055639
 H         -0.4416972328       -4.1493296091       -1.2801718636
 H         -2.1198472965       -4.0530275749        1.3102004451
