  62
        -98.94399139
 C          2.2141919002        1.2466360004       -0.1675476603
 C          2.6331448501        0.1516930304       -0.9607604703
 C          4.0118693601       -0.3077775496       -0.7369783504
 C          4.7821537002        0.3274400704        0.1649845795
 C          6.1809610103       -0.0729722196        0.5325850794
 C          6.1843936004       -1.0509424896        1.7159803094
 C          5.2164925603       -2.2229894196        1.5523275795
 H          4.1915430603       -1.8447525496        1.5583456596
 H          5.3277255004       -2.8618393096        2.4311788295
 C          5.4386997802       -3.0573317096        0.2831539295
 H          5.3918905002       -4.1159022496        0.5474136495
 H          6.4358180502       -2.8671235296       -0.1157180706
 C          4.4006599001       -2.8273068596       -0.8169775804
 H          3.3949692601       -2.9263490296       -0.3998712603
 H          4.5213038100       -3.6131460896       -1.5675629804
 C          4.4885246201       -1.4807219396       -1.5463341105
 H          3.8278927100       -1.5319521196       -2.4168830804
 H          5.5093165100       -1.3186190996       -1.8985423706
 H          5.9074541805       -0.5024014396        2.6192144994
 H          7.1992955004       -1.4306538596        1.8471045093
 H          6.6621791002       -0.5286743196       -0.3305056307
 H          6.7334982703        0.8251835904        0.8135640893
 O          4.3505668303        1.3902424404        0.8909614595
 C          3.0565749103        1.8651913004        0.7565201396
 O          2.7795975704        2.8263416905        1.5020158696
 H         -1.2526180799        0.7003178805       -1.8086189700
 C         -1.1608388699        0.2481562005       -0.8338896600
 C         -0.1790514798        0.6809619405        0.0420195799
 C         -0.0908550397        0.0763250405        1.2937874999
 C         -0.9459838496       -0.9491986195        1.6470912300
 C         -1.9118079497       -1.3942903995        0.7608957301
 C         -2.0162165598       -0.7905116095       -0.4842949099
 N         -2.9990987899       -1.2295629195       -1.3842854698
 S         -4.5352291799       -1.5434144595       -0.8062835596
 O         -4.5697180998       -2.8423426795       -0.1816774896
 O         -5.4089071900       -1.3668150195       -1.9448265795
 C         -4.8376831797       -0.2773080295        0.4145479904
 C         -5.0486903896       -0.6256213994        1.7328119404
 C         -5.2518238595        0.3774322606        2.6672810804
 C         -5.2372659295        1.7049209606        2.2692151904
 C         -5.0269591497        2.0389922306        0.9398641604
 C         -4.8243998798        1.0404653605        0.0015528404
 H         -4.6656106099        1.2667762105       -1.0404400197
 H         -5.0178072497        3.0725516005        0.6329434803
 H         -5.3914970695        2.4848501706        2.9981202204
 H         -5.4173136294        0.1205166006        3.7012074104
 H         -5.0516422996       -1.6698273194        2.0000484604
 H         -3.0191381700       -0.7267561595       -2.2586233398
 H         -2.5725304097       -2.2084029595        1.0104895002
 H         -0.8589235196       -1.4117121095        2.6186136700
 H          0.6682263504        0.4202472105        1.9836805299
 C          0.7978547202        1.7809705605       -0.2949661702
 H          0.7018054003        2.5662647305        0.4681659598
 C          0.5854678201        2.4005793304       -1.6598296502
 C         -0.4755518299        3.4413893104       -1.8522106101
 C          0.9711216701        3.8322579304       -1.8723865102
 H          1.4189375300        4.1107239104       -2.8146343103
 H          1.3709575002        4.3695578904       -1.0247246503
 H         -1.0621759298        3.7201456605       -0.9901020100
 H         -1.0213843700        3.4581321904       -2.7836816500
 H          0.7797535800        1.7076097504       -2.4704014602
 O          1.8988928300       -0.4136893296       -1.8127535402
