  62
        -98.94049937
 C          1.2607586899        1.5911442684        0.0030108010
 C          2.2114053422        1.1355434615        0.9423884927
 C          3.1305015006        0.0705345647        0.4960763514
 C          2.9876120074       -0.4274233041       -0.7464986767
 C          3.8294476826       -1.4811042538       -1.4163981580
 C          3.5290675709       -2.9146545372       -0.9403099588
 C          3.1838297902       -3.0464990937        0.5414507120
 H          2.3858994070       -2.3435191261        0.7886768156
 H          2.7944507981       -4.0541513243        0.7098368213
 C          4.3595688269       -2.8430608513        1.4940130374
 H          3.9838928040       -2.9514609760        2.5148650770
 H          5.0941287022       -3.6344018907        1.3256074321
 C          5.0757225309       -1.4982199832        1.3827215036
 H          5.6454711493       -1.4432547193        0.4592388085
 H          5.8009204442       -1.4461413190        2.2004037755
 C          4.1735301267       -0.2762520817        1.5306501177
 H          4.8093433353        0.6131083508        1.6244890208
 H          3.6341588013       -0.3456596156        2.4823907152
 H          4.3893844605       -3.5449588799       -1.1706682385
 H          2.6787726246       -3.2863712328       -1.5139700122
 H          3.6164412890       -1.4169294607       -2.4853663549
 H          4.8796254804       -1.2363452464       -1.2782169855
 O          1.9998311469       -0.0138516508       -1.5893856767
 C          1.1302054354        1.0092889355       -1.2578003627
 O          0.3106278421        1.3019945263       -2.1461387727
 O          2.3015681964        1.6044586291        2.1108865174
 C          0.3570660097        2.7543398446        0.3703977352
 C         -1.0897835314        2.3385935809        0.2914567081
 C         -2.0473184387        3.0194726579       -0.4475018359
 C         -3.3559537801        2.5678897074       -0.4873619702
 C         -3.7401502975        1.4401486066        0.2136660397
 C         -2.7907828360        0.7559116102        0.9627472700
 C         -1.4808279437        1.2059202090        0.9966416676
 H         -0.7411306297        0.6684751419        1.5777903727
 N         -3.1752434664       -0.3988662705        1.6803573329
 S         -3.6791125214       -1.7063883930        0.7609624012
 O         -4.8956259572       -1.3533809808        0.0760828335
 O         -3.7616013508       -2.8164063226        1.6826966589
 C         -2.3626573162       -1.9768376601       -0.4093453630
 C         -1.3738610775       -2.8865576228       -0.0931256023
 C         -0.3159386820       -3.0567294675       -0.9705164095
 C         -0.2576598358       -2.3063398454       -2.1347675386
 C         -1.2550521852       -1.3920757775       -2.4352330347
 C         -2.3200578206       -1.2233331584       -1.5653377023
 H         -3.1129613088       -0.5224231670       -1.7689437656
 H         -1.1948657511       -0.7945419545       -3.3299724875
 H          0.5721823432       -2.4251781255       -2.8136554777
 H          0.4591689131       -3.7697488125       -0.7392397266
 H         -1.4575554045       -3.4503280785        0.8224184496
 H         -2.4671566640       -0.7110783253        2.3305685757
 H         -4.7510479708        1.0675071496        0.1809771508
 H         -4.0876839708        3.1039295357       -1.0725929214
 H         -1.7698007558        3.9007584469       -1.0014519181
 H          0.5886784863        2.9840974671        1.4210696489
 C          0.6937995208        3.9633000792       -0.4770328584
 C          0.4230077616        5.3440975112        0.0386743590
 C          1.8321404302        4.8443922742       -0.0614942232
 H          2.4736219969        5.2543017334       -0.8271394817
 H          2.3518096143        4.5870318455        0.8500449142
 H          0.0983801965        6.1014674591       -0.6586920843
 H         -0.0144181246        5.4334640143        1.0214943236
 H          0.5688911285        3.7775570372       -1.5378344720
