  62
        -98.94393262
 C         -1.7897030653       -0.6491750106        0.5684093252
 C         -3.0659968065       -0.6114654850        1.1788935037
 C         -4.2108431421       -0.5314470784        0.2649817515
 C         -4.0039185137       -0.5253733181       -1.0646702796
 C         -5.0698332359       -0.4764289021       -2.1255746941
 C         -5.5652073766        0.9397698114       -2.4488751294
 C         -6.4452447661        1.5816007641       -1.3755230327
 H         -6.8951111428        2.4716468870       -1.8200488999
 H         -7.2573407568        0.9009277319       -1.1179769675
 C         -5.6924687458        1.9930262805       -0.1024803982
 H         -4.6202579401        2.0285878276       -0.3096467857
 H         -5.9942158044        3.0015412985        0.1894790381
 C         -5.9351858566        1.0816063662        1.1007694437
 H         -6.9840042059        1.1418554631        1.3997279637
 H         -5.3270606486        1.4444160981        1.9335949578
 C         -5.5792809525       -0.3914904020        0.8601686360
 H         -5.5769559892       -0.9052167237        1.8247173342
 H         -6.3251099717       -0.8583318795        0.2171385843
 H         -4.6993980519        1.5781841187       -2.6400303176
 H         -6.1435138786        0.8796748700       -3.3737760160
 H         -4.6278156690       -0.9004814410       -3.0297744412
 H         -5.9138944703       -1.0986127964       -1.8266717706
 O         -2.7618960721       -0.5854815471       -1.6130003044
 C         -1.6249572598       -0.6261515076       -0.8168862148
 O         -0.5562422297       -0.6440591412       -1.4532921174
 O         -3.2384931847       -0.6432514310        2.4274338202
 C         -0.5607059356       -0.7214727462        1.4527805752
 C          0.3556392455        0.4582620041        1.2357600274
 C         -0.1683880469        1.7049114002        0.9075250480
 C          0.6590505582        2.7897994287        0.6857038160
 C          2.0321227518        2.6624800829        0.8026574039
 C          2.5646634463        1.4325464474        1.1585448861
 C          1.7318791229        0.3413921206        1.3735711082
 H          2.1667559000       -0.6090689293        1.6431278141
 N          3.9691386488        1.3072979537        1.2755599546
 S          4.8049350120        1.2421835758       -0.1776016780
 O          6.2032501902        1.1398050993        0.1726764000
 O          4.4227113065        2.3742960066       -0.9801664053
 C          4.2551050496       -0.2828728475       -0.9201596791
 C          5.0455289278       -1.4101526588       -0.8044135232
 C          4.5678088088       -2.6154234745       -1.2920741642
 C          3.3053159459       -2.6771391047       -1.8642113060
 C          2.5217690807       -1.5381501455       -1.9685009262
 C          3.0009827606       -0.3266227129       -1.4951932499
 H          2.4067601646        0.5700593736       -1.5654809326
 H          1.5272257271       -1.5751924422       -2.3843591529
 H          2.9264438347       -3.6189300631       -2.2298008002
 H          5.1742182028       -3.5038701075       -1.2168323698
 H          6.0158664196       -1.3173350046       -0.3435754440
 H          4.2509673451        0.5195133086        1.8438045845
 H          2.6950524042        3.4899867727        0.6106955833
 H          0.2310437669        3.7443422489        0.4182591115
 H         -1.2404129898        1.8140982458        0.8150454770
 H         -0.9431918958       -0.6712377473        2.4840573934
 C          0.1437108724       -2.0505750504        1.2579830705
 C          0.8062331650       -2.7440564622        2.4100895655
 C         -0.4701768558       -3.2859974673        1.8424835674
 H         -0.4367820757       -4.2002462562        1.2696000980
 H         -1.3778755823       -3.1631167188        2.4154011150
 H          1.7187785122       -3.2914645749        2.2263296370
 H          0.7628244043       -2.2662753520        3.3774938360
 H          0.6024261880       -2.1347071869        0.2789796556
