  62
        -98.94342416
 C          1.9693918158        0.8632372716        0.0403292310
 C          2.2240330647       -0.1130524617        1.0309422576
 C          2.4630709685       -1.4772487761        0.5448961821
 C          2.3908531882       -1.7256841013       -0.7757129800
 C          2.6478816228       -3.0606944832       -1.4117124965
 C          4.1249734257       -3.2201140985       -1.7986075571
 C          5.0989394733       -2.8628131846       -0.6759606239
 H          5.0172159867       -1.7949327100       -0.4610661403
 H          6.1085865649       -3.0398301901       -1.0524742694
 C          4.8902256079       -3.6568072624        0.6210281374
 H          5.8628023717       -3.9906275674        0.9883752663
 H          4.2959134340       -4.5483662029        0.4182735237
 C          4.2367202424       -2.8613204492        1.7525555047
 H          4.7739344740       -1.9207060542        1.8977325992
 H          4.3327419785       -3.4393272756        2.6755027115
 C          2.7478620054       -2.5399779950        1.5688060121
 H          2.3699716614       -2.1478291740        2.5180778669
 H          2.1969451093       -3.4540638000        1.3359749600
 H          4.3304451039       -2.5686358517       -2.6509242602
 H          4.2895486019       -4.2527439612       -2.1113714760
 H          2.0327130795       -3.1338976663       -2.3101615111
 H          2.3532922315       -3.8471769266       -0.7194179733
 O          2.1205547197       -0.7668959776       -1.6973750049
 C          1.8942263337        0.5464465219       -1.3158640271
 O          1.6479109787        1.3208408032       -2.2606135156
 O          2.2492103743        0.1463792007        2.2667161985
 C          1.6778314428        2.2881343490        0.4678185978
 C          0.2888278274        2.7006735614        0.0414113769
 C         -0.0303499844        4.0021812776       -0.3254958963
 C         -1.3265906798        4.3300125005       -0.6844011148
 C         -2.3258965935        3.3753391082       -0.6894699808
 C         -2.0154659840        2.0673692628       -0.3295667752
 C         -0.7222909602        1.7485530470        0.0482501413
 H         -0.4971939144        0.7334021183        0.3420941228
 N         -2.9964578732        1.0643448702       -0.3830228862
 S         -2.7869785318       -0.3998379141        0.4146207921
 O         -2.5424274735       -0.1816220293        1.8242569510
 O         -1.8087532060       -1.1876497659       -0.2942352994
 C         -4.4088305201       -1.1026101185        0.1810325245
 C         -4.7116589191       -1.6695890934       -1.0426379681
 C         -5.9782580383       -2.1948390637       -1.2429070982
 C         -6.9163373967       -2.1443487213       -0.2222362718
 C         -6.5976672122       -1.5739306136        1.0008215694
 C         -5.3326680873       -1.0458682127        1.2072433547
 H         -5.0358322342       -0.6007012195        2.1432062003
 H         -7.3275825998       -1.5389139201        1.7933478987
 H         -7.9009189699       -2.5549817048       -0.3806501650
 H         -6.2281690838       -2.6412442575       -2.1918336660
 H         -3.9464632789       -1.6934067047       -1.8012633862
 H         -3.9419644298        1.4133108242       -0.3172944708
 H         -3.3333599255        3.6310767995       -0.9789423774
 H         -1.5611225910        5.3452909025       -0.9661547908
 H          0.7368927691        4.7591224681       -0.3320399058
 H          1.7030473793        2.2739455443        1.5690525768
 C          2.7575141442        3.2267028394       -0.0329302931
 C          3.1738065600        4.4148122302        0.7804268208
 C          4.0860680977        3.2325460516        0.6603931691
 H          4.9801234019        3.3246380054        0.0623000346
 H          4.1979382417        2.5824561637        1.5162093531
 H          3.4455824102        5.3229483070        0.2637361995
 H          2.6767790042        4.5734414627        1.7256446688
 H          2.7556877077        3.3171645626       -1.1133941349
