  62
        -98.93476521
 C         -2.3768452674       -1.3466384216        0.1827148526
 C         -2.2698318788        0.0299665053       -0.1280308929
 C         -3.3758323766        0.9051670860        0.3235195636
 C         -4.3990760722        0.3675150439        1.0111966245
 C         -5.6398291084        1.0419903034        1.5341822019
 C         -6.6629853397        1.3458171930        0.4289820807
 C         -6.0733023870        1.9563355272       -0.8392277930
 H         -5.3272190652        1.2749933384       -1.2520314315
 H         -6.8786432617        2.0387800210       -1.5738148660
 C         -5.4548016021        3.3416349628       -0.6662708986
 H         -5.1769644173        3.6988151776       -1.6612583734
 H         -6.2086948866        4.0240772657       -0.2678258516
 C         -4.2119377754        3.4138838723        0.2246262670
 H         -3.7347913947        4.3810195606        0.0406106272
 H         -4.4782978327        3.3986764883        1.2780994107
 C         -3.1597343838        2.3481825906       -0.0652749642
 H         -2.9380435591        2.3467983103       -1.1390383733
 H         -2.2195022848        2.6426226791        0.4177957995
 H         -7.4229472037        2.0137146932        0.8379503685
 H         -7.1511168618        0.4081370303        0.1522334831
 H         -6.0934773816        0.3494788202        2.2467631288
 H         -5.3749529981        1.9458351311        2.0746460527
 O         -4.4484283627       -0.9627718380        1.3078675117
 C         -3.4557074721       -1.8391002379        0.9232220487
 O         -3.6395926271       -3.0153393419        1.2952371569
 H          0.6228996095       -1.1396372395       -1.6925492643
 C          0.9103770260       -1.2426445069       -0.6578922867
 C          0.0448589659       -1.8519710054        0.2353690504
 C          0.4176159032       -1.9404639376        1.5730160527
 C          1.6313603321       -1.4362921441        2.0009932121
 C          2.4914876964       -0.8224715460        1.1070820550
 C          2.1176292127       -0.7092803557       -0.2248662338
 N          2.9749850359       -0.0768033853       -1.1394362299
 S          3.7636062966        1.3320732725       -0.6864491654
 O          3.0234008537        2.0868190087        0.2975487054
 O          4.0600597683        2.0109318483       -1.9295913970
 C          5.2895454633        0.7406167412        0.0199952386
 C          6.0511268581       -0.1433435201       -0.7192061732
 C          7.2447502150       -0.6053902659       -0.1885218973
 C          7.6570577997       -0.1760188252        1.0642031680
 C          6.8838263629        0.7148881891        1.7923513116
 C          5.6881548411        1.1800920022        1.2670957336
 H          5.0521045865        1.8693509002        1.7998820117
 H          7.2057734052        1.0485654824        2.7657885582
 H          8.5862880456       -0.5375361807        1.4754546477
 H          7.8487999717       -1.2980919003       -0.7520875119
 H          5.6974982400       -0.4501712665       -1.6892077982
 H          2.5767760216        0.0180159317       -2.0626408761
 H          3.4316010193       -0.4117632207        1.4370871174
 H          1.9100564196       -1.5162638242        3.0408457625
 H         -0.2634228539       -2.4011883267        2.2757741247
 C         -1.3085305316       -2.3634630118       -0.1885920560
 H         -1.5424344946       -3.2484790367        0.4242714656
 C         -1.3426425227       -2.8235210545       -1.6385948347
 C         -2.6536209103       -3.0793623527       -2.3190089881
 C         -1.7818331719       -1.9489662388       -2.7723815103
 H         -1.2688984863       -2.0476964402       -3.7184320113
 H         -2.0851596291       -0.9391224908       -2.5467978340
 H         -2.7463888990       -3.9477428058       -2.9534977854
 H         -3.5516132540       -2.8426474089       -1.7665189623
 H         -0.5430073465       -3.5266056790       -1.8519844884
 O         -1.3114022135        0.5384773563       -0.7672828547
