  62
        -98.94122193
 C         -2.5297720774       -0.3315144487        0.0027987972
 C         -2.1153083469       -1.3275293663       -0.9104851919
 C         -1.4459435228       -2.5072072666       -0.3391628784
 C         -1.2755512681       -2.5858726748        0.9919099636
 C         -0.6744042835       -3.7074892594        1.8034280974
 C          0.5902931829       -4.3845074646        1.2626412070
 C          1.5612011361       -3.4512953865        0.5242196077
 H          1.2838470597       -2.4067592330        0.6830722074
 H          2.5640860389       -3.5855254985        0.9352578270
 C          1.6300503501       -3.7333534467       -0.9782824335
 H          2.5557925480       -3.3056847574       -1.3715111381
 H          1.6703251870       -4.8145153493       -1.1336223555
 C          0.4860634181       -3.1482870546       -1.8049611786
 H          0.6071006951       -3.4901216563       -2.8364269962
 H          0.5723172782       -2.0576344107       -1.8188216468
 C         -0.9312825392       -3.5116760681       -1.3299095583
 H         -1.6005014450       -3.4517936263       -2.1929294508
 H         -0.9662685122       -4.5240778261       -0.9335518638
 H          0.3116579149       -5.2028687261        0.5999791255
 H          1.0967409159       -4.8315478854        2.1199943329
 H         -1.4486105159       -4.4659135782        1.9559993216
 H         -0.4607732570       -3.2634555319        2.7787395743
 O         -1.7087107965       -1.6096289784        1.8386406260
 C         -2.2918914648       -0.4457072605        1.3711889267
 O         -2.5695968720        0.3821214058        2.2614326508
 O         -2.3058330579       -1.2392771380       -2.1552351745
 C         -3.1055663582        0.9704299726       -0.5296948615
 C         -2.1305664772        2.0705596019       -0.1857129484
 C         -2.4730368795        3.2554884486        0.4504774722
 C         -1.4883599314        4.1592512487        0.8145421042
 C         -0.1526218802        3.8936831009        0.5758060642
 C          0.1968061642        2.7197242158       -0.0835258623
 C         -0.7935992460        1.8421129335       -0.4858559529
 H         -0.5135024840        0.9351220911       -1.0019121099
 N          1.5390449883        2.3977899591       -0.3554914833
 S          1.9442263004        0.7540889159       -0.3247089725
 O          1.6719130533        0.1963821734       -1.6257182205
 O          1.3253684508        0.1027338671        0.8069114284
 C          3.7091290658        0.8583662182       -0.0933763310
 C          4.2514381825        0.6152632320        1.1538095812
 C          5.6233698723        0.7249016963        1.3211439440
 C          6.4238807755        1.0777253596        0.2452566762
 C          5.8648433809        1.3180642479       -1.0013950788
 C          4.4947178626        1.2074525217       -1.1760688056
 H          4.0154996834        1.3725199168       -2.1268928737
 H          6.4905340902        1.5891352325       -1.8362970569
 H          7.4907019247        1.1631126882        0.3784763771
 H          6.0604786032        0.5346308917        2.2880843929
 H          3.5887191416        0.3380616640        1.9581460951
 H          2.1927169272        2.9557492860        0.1771468365
 H          0.6132392608        4.5826823704        0.8978986606
 H         -1.7651978197        5.0734477859        1.3176636373
 H         -3.5053182741        3.4622365947        0.6809089106
 H         -3.1329769458        0.8556150221       -1.6237211327
 C         -4.5098118379        1.2113437838       -0.0224793632
 C         -5.4603464970        2.0549191608       -0.8172285308
 C         -5.6599126731        0.5720524603       -0.7391500806
 H         -6.4826474267        0.1900928390       -0.1538143477
 H         -5.4302663377       -0.0237627076       -1.6105500316
 H         -6.1513463914        2.6922108133       -0.2866799661
 H         -5.1012707703        2.4687832217       -1.7473426628
 H         -4.5578456959        1.2600816819        1.0593557784
