  62
        -98.93209644
 C         -1.7366520058       -0.1867803141       -0.7700212981
 C         -2.8937880346        0.6212594340       -0.8675585113
 C         -4.1873958394       -0.0272979587       -0.5503234354
 C         -4.1999282845       -1.3207772799       -0.1823784838
 C         -5.3760771855       -2.1681974207        0.2253164763
 C         -5.8678275875       -1.8562863612        1.6476567816
 C         -5.9736826241       -0.3701301923        1.9788186523
 H         -6.2309642792       -0.2834873408        3.0378498379
 H         -4.9965479089        0.0972888726        1.8442075490
 C         -7.0209905840        0.4011549521        1.1791355983
 H         -8.0013237073       -0.0527653105        1.3406498561
 H         -7.0549271251        1.4159789219        1.5838243789
 C         -6.7726927150        0.5007811526       -0.3276390450
 H         -7.4405684404        1.2751840658       -0.7164248850
 H         -7.0446084518       -0.4218077479       -0.8333815561
 C         -5.3561192174        0.9151719922       -0.7128141832
 H         -5.0888530195        1.8268691299       -0.1664033842
 H         -5.3534478002        1.2053998905       -1.7705386713
 H         -5.1651259215       -2.3051586791        2.3539395690
 H         -6.8391718696       -2.3333390436        1.7889365336
 H         -6.1817621791       -2.0615259281       -0.4949003319
 H         -5.0380853115       -3.2063935382        0.1946953131
 O         -3.0558927572       -2.0588715906       -0.0926482246
 C         -1.8174066694       -1.5258525772       -0.3800608030
 O         -0.8712653601       -2.3313839955       -0.2638001992
 O         -2.8825764169        1.8354717133       -1.1948762750
 C         -0.3344766060        0.3132350126       -1.0716708200
 C          0.3148240088        0.9377926484        0.1361833671
 C         -0.3648944986        1.8326818857        0.9556144552
 C          0.2702032630        2.4060884105        2.0422432675
 C          1.5968162382        2.1221253968        2.3155518219
 C          2.2859917183        1.2322121994        1.5007673402
 C          1.6345901782        0.6316111235        0.4328304385
 H          2.1670651179       -0.0798659456       -0.1790353920
 N          3.6319264159        0.9222955630        1.7390705008
 S          4.6811977114        0.7794730097        0.4395048752
 O          5.9867589045        1.0675143503        0.9927766617
 O          4.2598382299        1.6029086204       -0.6686825764
 C          4.6082596152       -0.9429594806       -0.0012053552
 C          4.8972811206       -1.8782304057        0.9726370522
 C          4.8560019064       -3.2228508568        0.6420133666
 C          4.5294303248       -3.6073885180       -0.6498008055
 C          4.2456576528       -2.6560762333       -1.6172278642
 C          4.2856891752       -1.3092789817       -1.2926166812
 H          4.0672813409       -0.5379662570       -2.0149792096
 H          3.9898833056       -2.9564993360       -2.6207464622
 H          4.4946818114       -4.6547146772       -0.9052614049
 H          5.0756636663       -3.9668548995        1.3907182074
 H          5.1509386866       -1.5401189793        1.9634700991
 H          4.0528785654        1.4182457044        2.5111072096
 H          2.0957043078        2.5854166100        3.1533366659
 H         -0.2689231115        3.0957950567        2.6743342574
 H         -1.3891608306        2.0834603751        0.7258577091
 H          0.2436260611       -0.5921704458       -1.3180366329
 C         -0.2700218876        1.2255671832       -2.2898601760
 C         -0.0777492183        2.7065026471       -2.2088607351
 C          1.0332843223        1.8379783584       -2.7130520789
 H          1.2702170316        1.8634958426       -3.7664021258
 H          1.8943670045        1.7053633398       -2.0730611122
 H         -0.6230101171        3.3213874342       -2.9084765443
 H          0.0286478711        3.1535253383       -1.2330881672
 H         -0.9175129216        0.8721545178       -3.0866304084
