  62
        -98.93747738
 C          2.4477099725        0.8246378795        0.1897459916
 C          3.1031340377        0.0135586154        1.1522799912
 C          4.5499911655       -0.1681252899        0.9824030718
 C          5.1710722271        0.4478524836       -0.0396221628
 C          6.6309637128        0.3190416597       -0.3627069844
 C          6.8828124941       -0.8325334658       -1.3458844486
 C          6.2093979021       -2.1446677695       -0.9437424419
 H          5.1252475195       -2.0195576824       -0.9944089392
 H          6.4815888496       -2.8927337588       -1.6914271123
 C          6.5946156582       -2.6534030348        0.4524276111
 H          6.8021703167       -3.7236780273        0.3901772408
 H          7.5109020388       -2.1645924806        0.7853055084
 C          5.5092560303       -2.4719392258        1.5153618026
 H          4.5630805277       -2.8763911083        1.1466908703
 H          5.7937113037       -3.0556279918        2.3949619146
 C          5.2665054855       -1.0311502386        1.9825488914
 H          6.2140498067       -0.5745055924        2.2759932613
 H          4.6171828312       -1.0714074490        2.8620616621
 H          6.5027601679       -0.5390560584       -2.3271216474
 H          7.9603038866       -0.9849225097       -1.4302749758
 H          6.9656328064        1.2531664624       -0.8168614411
 H          7.1874201674        0.1537422820        0.5577645762
 O          4.5179728814        1.2314982183       -0.9323542564
 C          3.1463989135        1.4363757084       -0.8529367978
 O          2.7025948487        2.1646929227       -1.7613494553
 O          2.5013203454       -0.5287394223        2.1192296709
 C          0.9588760923        1.0356817737        0.3723311130
 C          0.0877041109        0.2029882147       -0.5414888664
 C          0.5081853081       -0.2529343471       -1.7842257842
 C         -0.3517311557       -0.9737415943       -2.5949522253
 C         -1.6489596576       -1.2358379438       -2.1952150636
 C         -2.0801595607       -0.7881200071       -0.9513134367
 C         -1.2067373958       -0.0896989574       -0.1318274058
 H         -1.5545666303        0.2354496045        0.8358521154
 N         -3.3849228379       -1.0501667771       -0.5018526843
 S         -4.1628715478        0.1507335057        0.3996467394
 O         -3.9731592708        1.4394065120       -0.2251656739
 O         -3.7467512426        0.0398651846        1.7753397598
 C         -5.8609499924       -0.3695382349        0.2392895132
 C         -6.6629820993        0.2273990793       -0.7151550081
 C         -7.9748516063       -0.1989625106       -0.8502423625
 C         -8.4588892094       -1.2111618876       -0.0351617124
 C         -7.6420574383       -1.8002118848        0.9187414300
 C         -6.3297206427       -1.3779802940        1.0600909952
 H         -5.6617020795       -1.7989457373        1.7933485390
 H         -8.0231298206       -2.5845262448        1.5526582239
 H         -9.4802841534       -1.5407707855       -0.1417412652
 H         -8.6132115311        0.2596179203       -1.5881305553
 H         -6.2462440778        1.0170152408       -1.3196305500
 H         -3.9841624655       -1.4109166827       -1.2321129148
 H         -2.3195212662       -1.7867003202       -2.8370019892
 H         -0.0082285723       -1.3229284194       -3.5571736557
 H          1.5083514625       -0.0291803265       -2.1220089194
 H          0.7454430865        0.7169058122        1.4031495011
 C          0.5618977520        2.4962707273        0.2361725481
 C         -0.5890388318        3.0472607236        1.0197107485
 C          0.8136447796        3.4398345241        1.3725595032
 H          1.1470417394        4.4414110407        1.1469697325
 H          1.2437685693        3.0278428981        2.2741732966
 H         -1.2295162619        3.7743662268        0.5440812213
 H         -1.1169755337        2.3856750624        1.6903546290
 H          0.7131845003        2.8784397268       -0.7660947711
