  62
        -98.93699585
 C         -1.0992472449       -1.5830306666       -0.4296389227
 C         -1.3777560222       -0.2221830638       -0.7040499412
 C         -2.5726873825        0.3485742815       -0.0459159659
 C         -3.2992727453       -0.4061143690        0.7964717819
 C         -4.5073935413       -0.0744375497        1.6483036465
 C         -5.3202135895        1.1923499817        1.3937747495
 C         -6.0772254961        1.2111975052        0.0665242928
 H         -6.8755922224        0.4661797418        0.1111549163
 H         -6.5434948958        2.1924960113       -0.0456873234
 C         -5.2367810234        0.9149040517       -1.1727371492
 H         -5.8958228796        0.9672298359       -2.0435529449
 H         -4.8535242097       -0.1061199714       -1.1194737373
 C         -4.0702494051        1.8709911382       -1.4140311205
 H         -4.4340679354        2.9002996406       -1.4182312231
 H         -3.6683219333        1.6533198673       -2.4069929502
 C         -2.9058805631        1.7659930204       -0.4128504006
 H         -2.0109466837        2.1735854351       -0.8923690074
 H         -3.0910275164        2.3577416457        0.4812714061
 H         -6.0595015030        1.2534406123        2.1972846331
 H         -4.6858161441        2.0694149504        1.4839729178
 H         -5.1684602974       -0.9443731129        1.5784696842
 H         -4.1405428888       -0.0478481502        2.6808133047
 O         -2.9705500080       -1.7064236258        1.0575876361
 C         -1.8838510861       -2.3172832568        0.4599365845
 O         -1.7251538241       -3.5112093605        0.7893832974
 H          0.9403704121       -0.1936962197        0.4164189790
 C          1.5683382574       -1.0554977023        0.5746971771
 C          1.2708606370       -2.2490185456       -0.0666834215
 C          2.0787369383       -3.3552907990        0.1703400927
 C          3.1613199945       -3.2621700193        1.0270930808
 C          3.4564743940       -2.0704573236        1.6637672063
 C          2.6460925399       -0.9609336556        1.4431911979
 N          2.9047603601        0.2470055719        2.0899866248
 S          2.1385898466        1.6784310046        1.7470705788
 O          2.8922233391        2.6564962193        2.5062264869
 O          0.7330054739        1.5958056669        2.0627750006
 C          2.3849751372        1.9792857911        0.0081227671
 C          1.3839846953        2.6038154929       -0.7056753898
 C          1.5855424131        2.8734736926       -2.0493911867
 C          2.7805689232        2.5165806911       -2.6521564042
 C          3.7804378879        1.8948290194       -1.9200490842
 C          3.5851696600        1.6245671161       -0.5756107062
 H          4.3447328428        1.1400687879        0.0161544288
 H          4.7077092914        1.6147580403       -2.3935511396
 H          2.9331475205        2.7220925797       -3.7000545300
 H          0.8036565775        3.3490788406       -2.6188329982
 H          0.4620401661        2.8489191602       -0.2034059000
 H          3.7538178078        0.3256869530        2.6249865482
 H          4.2958263065       -1.9987645392        2.3378793589
 H          3.7807082539       -4.1279360622        1.2052215184
 H          1.8414898227       -4.2956863921       -0.3048195581
 C          0.0921855344       -2.3317839106       -1.0040379144
 H         -0.2178206505       -3.3888554423       -1.0461497570
 C          0.4477376057       -1.9047613704       -2.4215340364
 C          1.6205376101       -1.0340225561       -2.7440380355
 C          1.6463920356       -2.4849791159       -3.1126742665
 H          1.5563598184       -2.7571393768       -4.1533437518
 H          2.2897339195       -3.1341428628       -2.5389103885
 H          2.2410534848       -0.6986088996       -1.9277259463
 H          1.4960115378       -0.2947329546       -3.5196069750
 H         -0.4396307964       -1.7591897339       -3.0286432897
 O         -0.6823798277        0.5055123900       -1.4553483905
