  62
        -98.94032836
 C         -2.6342285689       -1.1474891820        0.2732224346
 C         -2.5658011453       -0.3088619728       -0.8673510155
 C         -3.4223947004        0.8853462589       -0.8312313320
 C         -4.2068359301        1.1218139818        0.2347927826
 C         -5.1489105912        2.2828085289        0.4034174116
 C         -4.4773766988        3.5583937690        0.9306798477
 C         -3.5743474555        4.2802753401       -0.0705059112
 H         -4.1232583062        4.4477211638       -0.9976107908
 H         -3.3450537614        5.2597202022        0.3539769828
 C         -2.2564758534        3.5534220601       -0.3744984519
 H         -1.4300752086        4.2668007875       -0.3375754631
 H         -2.0663689184        2.8056086482        0.3994116403
 C         -2.2081911461        2.8732677752       -1.7429546222
 H         -2.2607706274        3.6294636127       -2.5291885754
 H         -1.2499823648        2.3552450888       -1.8351055478
 C         -3.3243662160        1.8468188425       -1.9768354285
 H         -4.2764640341        2.3531212443       -2.1336623067
 H         -3.0786464869        1.2727917225       -2.8734428098
 H         -3.9019729765        3.3060948710        1.8247103368
 H         -5.2724694043        4.2446728061        1.2311800041
 H         -5.6424585271        2.4951842169       -0.5452665952
 H         -5.9046299908        1.9679279684        1.1263743997
 O         -4.2397311973        0.2944465063        1.3143065193
 C         -3.4324163819       -0.8309036771        1.3746745739
 O         -3.5116990526       -1.4577703293        2.4511217025
 H         -0.2305244619       -0.4706796021        1.3713177419
 C          0.2953979810       -1.0240309165        0.6010855943
 C         -0.3565947496       -2.0729026026       -0.0372964473
 C          0.3298306703       -2.7782883547       -1.0158196325
 C          1.6259646940       -2.4271763520       -1.3520231068
 C          2.2628505000       -1.3713209071       -0.7275204414
 C          1.5881395507       -0.6619213911        0.2577899667
 N          2.2198202474        0.4261527557        0.8864855583
 S          3.7570357881        0.1940755506        1.5193025184
 O          3.9592396773       -1.1767626967        1.9285746456
 O          3.8960155799        1.1986017558        2.5515367217
 C          4.8443974816        0.5973013540        0.1688412760
 C          5.8071499415       -0.3068554277       -0.2348136256
 C          6.6500120573        0.0349534720       -1.2810920208
 C          6.5164364833        1.2681966249       -1.9003156152
 C          5.5456111954        2.1658471408       -1.4811558073
 C          4.7006449164        1.8309286218       -0.4352893304
 H          3.9353193648        2.4998602746       -0.0782692978
 H          5.4440323768        3.1236191662       -1.9656596947
 H          7.1726008834        1.5318371779       -2.7146975931
 H          7.4052199360       -0.6612829344       -1.6086678679
 H          5.8698102206       -1.2562912975        0.2726406885
 H          1.6318425766        0.9098435999        1.5495002888
 H          3.2681955411       -1.0897149693       -0.9949763981
 H          2.1447994396       -2.9796500238       -2.1205297047
 H         -0.1562037010       -3.5889286714       -1.5328251809
 C         -1.7678611617       -2.3891204818        0.3974290904
 H         -1.7394526590       -2.6080822179        1.4785470733
 C         -2.3460002339       -3.6249960753       -0.2759696026
 C         -3.8231873263       -3.7730211538       -0.4832160764
 C         -2.9163113111       -3.5886572781       -1.6607761109
 H         -2.7424248868       -4.4356682914       -2.3083001419
 H         -2.9197680627       -2.6396320945       -2.1723751052
 H         -4.2675709641       -4.7433319986       -0.3191067509
 H         -4.4562437496       -2.9487678384       -0.1874377167
 H         -1.8119612131       -4.5263446647        0.0092810401
 O         -1.8363397754       -0.5306266258       -1.8662083096
