  62
        -98.94666191
 C         -1.9902051305       -1.4488692001       -0.1114240493
 C         -1.7274069207       -0.1948661201       -0.7110827592
 C         -2.8921325508        0.6810630499       -0.8994886389
 C         -4.1124706907        0.2405001098       -0.5430174587
 C         -5.3731299607        1.0504191497       -0.6258834584
 C         -5.6319565305        1.8077998995        0.6844736117
 C         -4.4167650905        2.5741457696        1.2075190416
 H         -4.7268233604        3.0889891595        2.1194751517
 H         -3.6396140004        1.8603518096        1.4903378514
 C         -3.8328324708        3.5932280697        0.2190497116
 H         -3.6265351307        4.5214966097        0.7558940416
 H         -4.5679181209        3.8224243397       -0.5533245383
 C         -2.5224940208        3.1593550399       -0.4410686287
 H         -2.0918932010        4.0307404499       -0.9418495287
 H         -1.8159064607        2.8359553298        0.3279430611
 C         -2.6432825810        2.0422253699       -1.4856099588
 H         -3.4166796811        2.2987091300       -2.2122654786
 H         -1.6875013011        1.9699235001       -2.0132711690
 H         -5.9349755604        1.0861804994        1.4467670117
 H         -6.4605273806        2.5001885495        0.5248055819
 H         -5.2949345509        1.7516994898       -1.4543488784
 H         -6.2069312907        0.3719486796       -0.8138853483
 O         -4.3308519305       -0.9897237003       -0.0108558788
 C         -3.2776509404       -1.8547331303        0.2387599809
 O         -3.6100267702       -2.9346455403        0.7677598409
 H          1.8910292096       -2.1048016999       -0.2313579400
 C          1.5331978097       -1.6515628200        0.6773335301
 C          0.1925017298       -1.7098319701        1.0216629703
 C         -0.2176082901       -1.1084321902        2.2099889004
 C          0.6872003300       -0.4524615703        3.0208905103
 C          2.0216488700       -0.3741195901        2.6600837901
 C          2.4435355398       -0.9777350400        1.4826066600
 N          3.7982130797       -0.9396253899        1.1029367097
 S          4.2371918994       -0.3410609697       -0.3987263203
 O          3.6237443993       -1.1234157296       -1.4393459003
 O          5.6841507894       -0.3319582896       -0.3757280606
 C          3.6377054893        1.3392406603       -0.4151961300
 C          4.5343589093        2.3582004103       -0.1541682801
 C          4.0748673592        3.6639593603       -0.1086451199
 C          2.7286805791        3.9277997302       -0.3138659496
 C          1.8428634291        2.8931844902       -0.5695031296
 C          2.2949840292        1.5832329202       -0.6223596298
 H          1.6121092592        0.7728683602       -0.8222144197
 H          0.7934895991        3.0848011801       -0.7290114993
 H          2.3677289691        4.9436337702       -0.2755880395
 H          4.7643891392        4.4692788403        0.0877375001
 H          5.5717882693        2.1060178504       -0.0039304403
 H          4.4048428498       -0.5410858699        1.8062512196
 H          2.7300882500        0.1457231299        3.2872479300
 H          0.3518334002        0.0088800096        3.9375720104
 H         -1.2625517300       -1.1627047803        2.4857755306
 C         -0.8418079104       -2.4021456501        0.1674197104
 H         -1.2677274902       -3.2332873202        0.7484980404
 C         -0.2877113806       -2.9521751899       -1.1299701497
 C          0.3700340995       -4.2979047999       -1.1554395200
 C         -0.9781309406       -4.1101246699       -1.7825048497
 H         -1.0542522908       -4.1249869698       -2.8594805497
 H         -1.8406992205       -4.5208979800       -1.2776608196
 H          1.2239276494       -4.4399404598       -1.8009583601
 H          0.4246016097       -4.8452328800       -0.2263643100
 H          0.1111930393       -2.1808436798       -1.7795657797
 O         -0.5797194808        0.1795033500       -1.0651036094
