  62
        -98.93867207
 C         -1.8909000588       -1.3510600266        0.1376706391
 C         -2.2022674963       -0.3596201147       -0.8212407661
 C         -3.5815533539        0.1647237499       -0.8069112177
 C         -4.4605057884       -0.2866289956        0.1061468845
 C         -5.9221929630        0.0380239979        0.3320905877
 C         -6.5574467058        1.2742017934       -0.2995344288
 C         -6.0270399695        2.6075767915        0.2260126991
 H         -6.4830664981        3.4098805647       -0.3582838382
 H         -6.3504722129        2.7267826943        1.2631863561
 C         -4.5095096042        2.7726430131        0.1956143427
 H         -4.2734698897        3.7659657636        0.5873448720
 H         -4.0472545065        2.0463703321        0.8676866316
 C         -3.8655673543        2.6527978697       -1.1844507591
 H         -4.3478259051        3.3460859960       -1.8764020419
 H         -2.8192003939        2.9547379890       -1.0845899745
 C         -3.8847980256        1.2448580723       -1.8053582344
 H         -4.8279927124        1.0468076403       -2.3085282391
 H         -3.0946082714        1.1992595318       -2.5602228218
 H         -7.6243142702        1.2286916756       -0.0642980488
 H         -6.4727375619        1.2320598092       -1.3814714905
 H         -6.4781946262       -0.8447098538       -0.0029583210
 H         -6.0490264830        0.0869386382        1.4182711561
 O         -4.1142791966       -1.2406660805        1.0181929168
 C         -2.8472896577       -1.7879071869        1.0594878795
 O         -2.6941582004       -2.6489664778        1.9483770796
 H          0.3805392671        0.4219584629       -0.4828045734
 C          0.8370390068        0.0890057128        0.4374639299
 C          0.4658413796       -1.1354808793        0.9745184565
 C          1.0570882705       -1.5453910222        2.1634173323
 C          1.9955039796       -0.7486262885        2.7969440129
 C          2.3633362729        0.4709760984        2.2578102860
 C          1.7713206590        0.8914277554        1.0740689996
 N          2.1553352425        2.1248187408        0.5045939450
 S          3.7841341256        2.2360297991        0.1174882370
 O          4.5369459837        2.5200978630        1.3135270385
 O          3.8724901415        3.2221263631       -0.9360588926
 C          4.2001868031        0.6124312646       -0.4928425723
 C          3.6949458418        0.2307285761       -1.7197745276
 C          3.9398418268       -1.0542444705       -2.1746863848
 C          4.6752540622       -1.9335047247       -1.3947234669
 C          5.1756115784       -1.5347776455       -0.1653016882
 C          4.9348844657       -0.2501031916        0.2945978959
 H          5.3041614781        0.1007699390        1.2441045129
 H          5.7471024120       -2.2213330946        0.4380607488
 H          4.8599093089       -2.9357677520       -1.7482027131
 H          3.5515020609       -1.3647842492       -3.1316218345
 H          3.1287427257        0.9410451043       -2.3012348856
 H          1.5947706121        2.3700815177       -0.2998670708
 H          3.0986510129        1.1022056693        2.7303665871
 H          2.4458927086       -1.0810362704        3.7196948745
 H          0.7687659391       -2.4923670767        2.5959416469
 C         -0.5279553179       -2.0162564927        0.2559436045
 H         -0.6919137800       -2.9084306837        0.8745164885
 C          0.0366671037       -2.4573975067       -1.0819788409
 C          1.0923526426       -3.5193118829       -1.1079513209
 C         -0.2895445656       -3.8231680666       -1.6025368245
 H         -0.4460483773       -3.9456645936       -2.6637700502
 H         -0.9242943925       -4.4513604022       -0.9942114071
 H          1.8897303134       -3.4323561472       -1.8290166977
 H          1.3972371072       -3.9438000398       -0.1636768370
 H          0.1097837263       -1.6545246750       -1.8030460699
 O         -1.3871608358        0.0875449820       -1.6735945485
