  62
        -98.93774162
 C          1.6516692754        1.5231143012        0.3466348020
 C          1.7711548498        0.3396642439        1.1188957538
 C          2.9334641241       -0.5224952787        0.8456434529
 C          3.8012205915       -0.1555422207       -0.1132155683
 C          5.0478456399       -0.8729450666       -0.5543378489
 C          4.7639722096       -1.7995569374       -1.7481976681
 C          4.2931615787       -3.2030855030       -1.3702720499
 H          4.0054003956       -3.7105105619       -2.2939458189
 H          5.1285340844       -3.7585663403       -0.9389710569
 C          3.1142810727       -3.2466986440       -0.3948002553
 H          2.3868016000       -2.4829638288       -0.6737881189
 H          2.6290373171       -4.2189541263       -0.5011253260
 C          3.5330077701       -3.0516216429        1.0704147591
 H          4.6178732311       -3.1225741671        1.1442252657
 H          3.1315263612       -3.8670275348        1.6762149361
 C          3.0576087392       -1.7426787905        1.7171284838
 H          2.0571237217       -1.8810317481        2.1389413701
 H          3.7170125752       -1.5025162646        2.5581673196
 H          4.0136595510       -1.3147967307       -2.3781024254
 H          5.6753046294       -1.8952257657       -2.3419840959
 H          5.7494887349       -0.0998906314       -0.8751242798
 H          5.4890610344       -1.4215951137        0.2725922561
 O          3.6178836770        0.9583238162       -0.8717184516
 C          2.5449323265        1.8143556515       -0.6842118478
 O          2.5219126690        2.7645394788       -1.4902247970
 O          0.9420801885        0.0246128432        2.0141988900
 C          0.4815532429        2.4318164801        0.6839078253
 C         -0.7129584117        2.0872865445       -0.1714448794
 C         -0.6962235001        2.2667616074       -1.5504631834
 C         -1.7941962540        1.9157972940       -2.3153029587
 C         -2.9271609409        1.3814233123       -1.7251247612
 C         -2.9496633453        1.1930967935       -0.3502582768
 C         -1.8474876834        1.5472588275        0.4162169762
 H         -1.8634798747        1.3815427632        1.4849596215
 N         -4.0954168463        0.6316329097        0.2560263245
 S         -4.4368616325       -0.9569746754       -0.1566749156
 O         -4.7900299058       -1.0110475040       -1.5517794270
 O         -5.4477166547       -1.3913027330        0.7797536845
 C         -2.9094204532       -1.8297014816        0.1302907300
 C         -1.9574000272       -1.8612354743       -0.8686162661
 C         -0.7409179434       -2.4713354293       -0.6111461275
 C         -0.4968037319       -3.0327002799        0.6320826248
 C         -1.4627559174       -2.9908206445        1.6247820779
 C         -2.6798838311       -2.3785179744        1.3759314375
 H         -3.4590996533       -2.3268726305        2.1196789700
 H         -1.2665702404       -3.4249415650        2.5919831309
 H          0.4540338488       -3.5017384576        0.8275211178
 H          0.0141759778       -2.5019333470       -1.3809032702
 H         -2.1827063065       -1.4163766926       -1.8243657443
 H         -4.0827667628        0.7090441258        1.2639568872
 H         -3.7838415091        1.0884283561       -2.3102190309
 H         -1.7685307520        2.0592897213       -3.3851140144
 H          0.1914595822        2.6675859711       -2.0161613915
 H          0.2227621622        2.1893052220        1.7236505278
 C          0.8029740255        3.9104179940        0.6071893925
 C         -0.0568924956        4.8759015818        1.3643983523
 C          1.3459727680        4.6059194272        1.8175970197
 H          2.0926555304        5.3729754348        1.6778256956
 H          1.4885958537        4.0174227657        2.7123618743
 H         -0.2775221038        5.8311364449        0.9136242711
 H         -0.8663546457        4.4712847507        1.9532090680
 H          1.1836771370        4.2238328295       -0.3553308449
