  62
        -98.94043607
 C         -2.1790983780       -0.7156982879        0.1328361689
 C         -3.0307414017       -0.1516025226        1.1162567468
 C         -3.8454810884        0.9908127232        0.6881147974
 C         -3.6963301026        1.4858844289       -0.5536387288
 C         -4.4354104792        2.6610710967       -1.1336491437
 C         -5.8162838103        2.3087247091       -1.7036966260
 C         -6.8917970285        2.0012147831       -0.6609519354
 H         -6.9310607259        2.8106421429        0.0686948709
 H         -7.8501183306        1.9874016095       -1.1838225626
 C         -6.7065786682        0.6607450751        0.0639902119
 H         -7.6606760699        0.1300915272        0.0986228906
 H         -6.0133596108        0.0338813859       -0.5019727783
 C         -6.2036274836        0.7817808222        1.5027319642
 H         -6.0736339247       -0.2256868198        1.9068235419
 H         -6.9526280902        1.2934443606        2.1111235092
 C         -4.8686340585        1.5249673978        1.6442170151
 H         -4.4920671602        1.3658516255        2.6578133283
 H         -5.0143983863        2.5938608608        1.4891433737
 H         -5.7085281837        1.4563600912       -2.3784803188
 H         -6.1504733080        3.1624008483       -2.2977331012
 H         -4.5405676566        3.4385267797       -0.3762801033
 H         -3.8156616211        3.0473662665       -1.9456867431
 O         -2.8076914565        0.9694566884       -1.4417820822
 C         -2.0416093524       -0.1504892773       -1.1363020920
 O         -1.2945353632       -0.5133373398       -2.0622414754
 O         -3.1000051759       -0.5785370676        2.3003381705
 C         -1.3493654792       -1.9227266606        0.5306788983
 C          0.0888316462       -1.7317300445        0.1180023013
 C          0.7800014089       -2.6090093100       -0.7059737262
 C          2.1024841045       -2.3653274051       -1.0342467950
 C          2.7614687363       -1.2493168180       -0.5542007037
 C          2.0814696515       -0.3663012873        0.2749119324
 C          0.7606617761       -0.6187843912        0.6104279500
 H          0.2298456534        0.0709852849        1.2565879971
 N          2.7344373304        0.7833260922        0.7516785773
 S          4.2574920458        0.6209893068        1.4364173910
 O          4.4268833919       -0.6757281656        2.0503728099
 O          4.4019134366        1.7669734398        2.3078717908
 C          5.3718441000        0.7970744947        0.0593456694
 C          6.3184368591       -0.1771037349       -0.1904006609
 C          7.1825788676       -0.0123951908       -1.2618160914
 C          7.0860628657        1.1178613079       -2.0588865594
 C          6.1317455551        2.0885431814       -1.7925434853
 C          5.2656409241        1.9305005365       -0.7225605622
 H          4.5124853062        2.6619125246       -0.4807526989
 H          6.0592672050        2.9661342283       -2.4146456442
 H          7.7583755847        1.2436358906       -2.8928496434
 H          7.9255819005       -0.7653002306       -1.4703087444
 H          6.3525122203       -1.0417429834        0.4531592734
 H          2.1487281367        1.3813131553        1.3159283829
 H          3.7885702983       -1.0537828525       -0.8153418453
 H          2.6258494669       -3.0522668116       -1.6817169322
 H          0.2786553004       -3.4729943053       -1.1095965712
 H         -1.3818663926       -1.9211072016        1.6339756145
 C         -1.9359406270       -3.2549245430        0.0878155516
 C         -3.4097417029       -3.4130435781       -0.1344063033
 C         -2.4660168128       -3.4783742265       -1.2956368040
 H         -2.2945483679       -4.4382602396       -1.7605559143
 H         -2.4322985210       -2.6479136050       -1.9829353133
 H         -3.8840314580       -4.3239984759        0.1988063806
 H         -4.0296174738       -2.5345882694       -0.0267194281
 H         -1.4311591486       -4.0938238618        0.5573777238
