  62
        -98.94510412
 C          0.9197979282        1.2514160197        0.4592903004
 C          1.4903733686        0.1154948198        1.0850620201
 C          2.2663901393       -0.7836988695        0.2214765400
 C          2.3320787996       -0.5284235789       -1.0977144999
 C          3.0976561603       -1.3524570381       -2.0920812900
 C          4.5290915201       -0.8282236873       -2.2711106494
 C          5.2679064496       -0.5952925674       -0.9531789091
 H          6.2763905595       -0.2576423567       -1.2012055687
 H          4.7802424590        0.2189156621       -0.4122670489
 C          5.3494389900       -1.8300606877       -0.0448511996
 H          5.1479384606       -2.7305509776       -0.6260595500
 H          6.3676567299       -1.9138924073        0.3405352207
 C          4.4164025896       -1.7880711387        1.1666382902
 H          4.5480054189       -0.8412103788        1.6961954306
 H          4.7117783298       -2.5888272088        1.8496557600
 C          2.9222620298       -1.9707176394        0.8700361097
 H          2.4110928996       -2.1018099800        1.8282904995
 H          2.7738015604       -2.8707128892        0.2687738293
 H          4.4850208797        0.1192532929       -2.8133323090
 H          5.0841354406       -1.5430070267       -2.8815166995
 H          3.1181258008       -2.3882979782       -1.7574197904
 H          2.5742917106       -1.3022112580       -3.0489806402
 O          1.7339874792        0.5434100110       -1.6733071897
 C          1.0010442684        1.4512133603       -0.9212697395
 O          0.4994433681        2.3714679003       -1.5931057893
 O          1.3455735784       -0.1428075408        2.3102927899
 C          0.0584921774        2.1626584389        1.3182873205
 C         -1.2899828625        2.3116530584        0.6601403001
 C         -1.9001918231        3.5250853282        0.3763801704
 C         -3.1187929329        3.5539221978       -0.2809137299
 C         -3.7379864521        2.3859306676       -0.6855285706
 C         -3.1364350116        1.1652391579       -0.3991730409
 C         -1.9429321917        1.1392903282        0.2988630195
 H         -1.4792775713        0.1892370584        0.5224415892
 N         -3.7201275008       -0.0505668423       -0.7881876715
 S         -2.7307442000       -1.3113071616       -1.2771638017
 O         -1.5381469000       -0.8498983307       -1.9483842712
 O         -3.6060392093       -2.1641078218       -2.0562873123
 C         -2.3126141699       -2.1589675319        0.2311120381
 C         -3.3239328500       -2.4611079628        1.1217345777
 C         -3.0077564000       -3.1444822631        2.2846751175
 C         -1.6953927499       -3.5184286725        2.5320093677
 C         -0.6930862098       -3.2138743316        1.6244380281
 C         -1.0020134898       -2.5262900413        0.4617498683
 H         -0.2474432097       -2.2515321306       -0.2604417313
 H          0.3284515403       -3.4983442111        1.8182493383
 H         -1.4485358298       -4.0487221227        3.4381226276
 H         -3.7832815801       -3.3825187038        2.9946679972
 H         -4.3309374501       -2.1561437133        0.8914661475
 H         -4.5364456807        0.0360529575       -1.3762126217
 H         -4.6710347120        2.4143780173       -1.2275939608
 H         -3.5819186333        4.5034615277       -0.5031337597
 H         -1.4118642936        4.4482884084        0.6417548209
 H         -0.0842243726        1.5904160185        2.2511432302
 C          0.7022331266        3.4805927391        1.7182302212
 C          2.1924923765        3.6399163099        1.7305768817
 C          1.3676635064        4.3883027598        0.7290696217
 H          1.2535520458        5.4550162997        0.8573008221
 H          1.3912025168        4.0706942003       -0.3011481884
 H          2.6450183960        4.1886524298        2.5429154620
 H          2.7858566570        2.8077663704        1.3796889215
 H          0.1653328061        3.9618778885        2.5300292412
