  62
        -98.93779722
 C         -1.9795890537       -0.8640774350        0.5597044113
 C         -2.2259630145       -0.1942795380       -0.6602537237
 C         -2.5325433345        1.2437642048       -0.5691493099
 C         -2.5276455528        1.8472447703        0.6339185575
 C         -2.7330292131        3.2981999543        1.0173152315
 C         -3.3869663221        4.2788794454        0.0465652579
 C         -4.8511443734        3.9847855474       -0.2759964246
 H         -5.4467407857        4.1508754474        0.6250537398
 H         -5.1821380387        4.7009826128       -1.0312041835
 C         -5.1453942535        2.5707321687       -0.7705814915
 H         -4.9347043984        1.8526450936        0.0246321939
 H         -6.2155916427        2.5082206121       -0.9853315784
 C         -4.3925340379        2.1486367294       -2.0312138772
 H         -4.8228657800        1.2019448730       -2.3678916190
 H         -4.5508192499        2.8875392580       -2.8188500375
 C         -2.8781034634        1.9298130669       -1.8591507493
 H         -2.5375596727        1.2646595184       -2.6580957929
 H         -2.3262146515        2.8620877584       -1.9548110569
 H         -2.8039839662        4.3482962426       -0.8669706567
 H         -3.3445908856        5.2611680040        0.5251381424
 H         -3.3074025338        3.2794332701        1.9490634299
 H         -1.7372805767        3.6770802365        1.2754343713
 O         -2.2537122512        1.1621805065        1.7841814936
 C         -1.9740444593       -0.1920660763        1.7785796307
 O         -1.7481155087       -0.6766527001        2.9082885264
 H          0.5267792346       -0.7714398867        0.4372309054
 C          0.6475042213       -1.6503509170       -0.1803806283
 C         -0.3806023663       -2.5812856212       -0.2554786820
 C         -0.1980011386       -3.7086350288       -1.0463447515
 C          0.9825950697       -3.8872135030       -1.7468665438
 C          2.0004347337       -2.9550980088       -1.6736417101
 C          1.8253422157       -1.8198374864       -0.8882141462
 N          2.8203700062       -0.8302918167       -0.8343968166
 S          2.8975883703        0.2284926433        0.4710593188
 O          2.9014696164       -0.5058511211        1.7176095583
 O          1.8775494341        1.2371799694        0.3199138314
 C          4.5031533810        0.9486797165        0.1827739111
 C          5.5968557370        0.4722115826        0.8805562325
 C          6.8450981119        1.0185238230        0.6257162889
 C          6.9782510758        2.0243338670       -0.3195731019
 C          5.8711891880        2.4930641905       -1.0115898943
 C          4.6202707845        1.9519321883       -0.7607584744
 H          3.7299566551        2.2884375177       -1.2662679080
 H          5.9777389466        3.2769907360       -1.7438930274
 H          7.9504023108        2.4477814032       -0.5163754412
 H          7.7064837469        0.6584517806        1.1646775877
 H          5.4424139641       -0.3046888228        1.6119849271
 H          3.7325976720       -1.1598456371       -1.1173784777
 H          2.9178455828       -3.0942710765       -2.2244829950
 H          1.1119184209       -4.7675442579       -2.3579856843
 H         -0.9807972058       -4.4462054070       -1.1150132641
 C         -1.6311546002       -2.3396546741        0.5572822538
 H         -1.4059894851       -2.5993908874        1.6035208812
 C         -2.8166769524       -3.1616309441        0.0928896198
 C         -3.0529497760       -4.5345870175        0.6445345252
 C         -3.9453139617       -3.4009573006        1.0487645628
 H         -4.9562620502       -3.3760760624        0.6708262714
 H         -3.8413498749       -2.9954923298        2.0452067051
 H         -3.4561969360       -5.2915101675       -0.0111959115
 H         -2.3508162799       -4.9082112358        1.3747160702
 H         -3.0694351133       -2.9721297743       -0.9438832237
 O         -2.1870848446       -0.7665972549       -1.7814114288
