  62
        -98.94026612
 C         -2.4790834699        1.1008034021       -0.0765577044
 C         -2.7081415962        0.0284644637        0.8187148140
 C         -4.1120599367       -0.3765635759        0.9825884247
 C         -5.0727977208        0.2859225249        0.3125985699
 C         -6.5337955285       -0.0560509369        0.3461971773
 C         -6.8998084234       -1.0394160055       -0.7744478827
 C         -5.9714701805       -2.2509053832       -0.8608285360
 H         -6.3437078870       -2.8888509441       -1.6653501213
 H         -4.9732782981       -1.9158081171       -1.1520592785
 C         -5.8713643101       -3.0679830448        0.4347732090
 H         -6.7129271385       -2.8325064562        1.0871642943
 H         -5.9408360254       -4.1289032855        0.1856811758
 C         -4.5638875220       -2.8767393312        1.2058376639
 H         -3.7150653226       -3.0183259169        0.5318110824
 H         -4.5050459097       -3.6530687241        1.9733283624
 C         -4.3963212741       -1.5243533802        1.9100740473
 H         -5.2750229289       -1.3166567656        2.5240281781
 H         -3.5255742402       -1.5982439433        2.5681682828
 H         -7.9261996367       -1.3755736668       -0.6168739528
 H         -6.8585515198       -0.5080853665       -1.7280892188
 H         -6.7785158132       -0.4855784141        1.3155829378
 H         -7.1049872392        0.8639093680        0.2112061219
 O         -4.8137975848        1.3255831501       -0.5219338304
 C         -3.5150221268        1.7503167569       -0.7469313784
 O         -3.4142523822        2.6970198707       -1.5538847745
 H          1.4862964911        0.8625285061        0.4674699768
 C          1.0830075010        0.2351195075       -0.3094730809
 C         -0.1899565221        0.4556772899       -0.8095932316
 C         -0.6625355553       -0.3809014454       -1.8181565516
 C          0.1142445099       -1.4160410787       -2.3001441746
 C          1.3879775311       -1.6287788209       -1.8022738722
 C          1.8711907416       -0.7976225767       -0.7996546526
 N          3.1514614769       -0.9952642934       -0.2578048277
 S          4.0548092617        0.3640642668        0.1754369299
 O          3.6839749034        0.7727224480        1.5065413664
 O          3.9535150030        1.3724870469       -0.8554165588
 C          5.6961894300       -0.3342220369        0.1971249589
 C          6.1263079090       -0.9903617406        1.3349976825
 C          7.3894946073       -1.5603128734        1.3423517631
 C          8.1966297046       -1.4664682679        0.2182488483
 C          7.7520605362       -0.8034466637       -0.9158094818
 C          6.4895872267       -0.2316109273       -0.9301261753
 H          6.1063910234        0.3020610180       -1.7850499658
 H          8.3832026137       -0.7292202275       -1.7866918566
 H          9.1795911922       -1.9103220647        0.2271651041
 H          7.7397211111       -2.0736917374        2.2232699675
 H          5.4675636747       -1.0300473489        2.1868815914
 H          3.7032948207       -1.6601409265       -0.7823361159
 H          1.9972464218       -2.4350574233       -2.1816916515
 H         -0.2706492339       -2.0586406123       -3.0779520791
 H         -1.6535845396       -0.2075477568       -2.2166947384
 C         -1.0634975635        1.5871394009       -0.3238801830
 H         -1.1315039465        2.3314364855       -1.1320405560
 C         -0.5244992275        2.2691415456        0.9165517288
 C          0.5097177412        3.3466218249        0.7980170554
 C         -0.8949238160        3.6951366385        1.1867946431
 H         -1.0898996559        3.9933769817        2.2059074659
 H         -1.5200547947        4.1903795643        0.4578223843
 H          1.2858985044        3.3991950044        1.5474274657
 H          0.8462230016        3.6097064751       -0.1939551779
 H         -0.4634345445        1.5977805018        1.7662203696
 O         -1.7908545108       -0.5615996611        1.4473408336
