  62
        -98.94448454
 C         -2.6014157526       -1.1741072149        0.1669240544
 C         -2.6053170475       -0.2414354885       -0.8984586769
 C         -3.3290209485        1.0152452676       -0.6521108081
 C         -3.9434428070        1.2108007208        0.5278614445
 C         -4.6638423924        2.4647722521        0.9278468040
 C         -3.7230230593        3.4423963726        1.6457234896
 C         -2.4032377824        3.6856430965        0.9128264918
 H         -1.8394363621        4.4200462542        1.4923833295
 H         -1.8137628870        2.7650339728        0.9115536742
 C         -2.5590173528        4.1869724072       -0.5296154357
 H         -3.5620716241        4.5895403129       -0.6768347297
 H         -1.8524244278        5.0034466885       -0.6929899646
 C         -2.2724905101        3.1335706922       -1.6015621629
 H         -1.3064674147        2.6612111310       -1.3984156048
 H         -2.1879695992        3.6439993531       -2.5650856227
 C         -3.3322533319        2.0347851343       -1.7562652651
 H         -4.3195668782        2.4892888886       -1.8597644576
 H         -3.1086858895        1.4848963918       -2.6751421466
 H         -4.2465204633        4.3911467500        1.7769296535
 H         -3.4936100762        3.0399677477        2.6349781099
 H         -5.0849563580        2.9345021331        0.0412369484
 H         -5.4750146966        2.1927813200        1.6052462137
 O         -3.9381035712        0.2861019773        1.5203426341
 C         -3.2574837966       -0.9087195050        1.3742190958
 O         -3.3170172438       -1.6533197418        2.3726939636
 H         -0.0778038023       -1.2800937983       -1.5223761004
 C          0.3793770494       -1.5970085661       -0.5967818817
 C         -0.3890793388       -2.2568081451        0.3519999336
 C          0.2093523747       -2.6230216145        1.5521093577
 C          1.5407429410       -2.3324031281        1.7938350447
 C          2.2979937511       -1.6601015371        0.8507685936
 C          1.7054738802       -1.2823629236       -0.3464958123
 N          2.4586917701       -0.5523997195       -1.2940166028
 S          2.9044610450        0.9895112016       -0.7780246474
 O          1.9683983268        1.5116236304        0.1923791094
 O          3.0857286154        1.7683343457       -1.9837952186
 C          4.4914754032        0.7238798697       -0.0157019313
 C          4.6678806565        0.9985254405        1.3260591960
 C          5.9121552026        0.7784877131        1.8966244704
 C          6.9514652950        0.2904276864        1.1193903050
 C          6.7582615675        0.0218169636       -0.2277146467
 C          5.5174625129        0.2406983967       -0.8043443998
 H          5.3246322818        0.0512066324       -1.8470128828
 H          7.5689631672       -0.3571671676       -0.8287900001
 H          7.9179149659        0.1188660670        1.5664250771
 H          6.0639902281        0.9870424560        2.9435037168
 H          3.8283656334        1.3711073291        1.8911823672
 H          1.9796831227       -0.4719907812       -2.1813924350
 H          3.3321293648       -1.4193945695        1.0371066931
 H          1.9912278717       -2.6247049642        2.7301299741
 H         -0.3859397040       -3.1180102276        2.3059438301
 C         -1.8594506450       -2.5033419854        0.1123744896
 H         -2.2435880979       -3.0908038344        0.9566376392
 C         -2.1083790078       -3.2809204747       -1.1643645677
 C         -1.8201842886       -4.7510187106       -1.1818799547
 C         -3.2371597834       -4.2642386466       -1.2127025449
 H         -3.7977574543       -4.3586219774       -2.1305691489
 H         -3.8370164322       -4.3805956529       -0.3216701813
 H         -1.4589513354       -5.1995504480       -0.2688168846
 H         -1.4052587483       -5.1834616038       -2.0792691306
 H         -1.9071109037       -2.7157912923       -2.0644360850
 O         -2.0440556285       -0.4234576523       -2.0134133794
