  62
        -98.94331774
 C          1.2854764159        1.2063101242        0.2488438817
 C          2.1840224116        0.7643731641        1.2518784048
 C          2.8341477641       -0.5289452756        1.0119416563
 C          2.5038568953       -1.2474458514       -0.0762269623
 C          3.0569309098       -2.5971417539       -0.4456383284
 C          4.3977241130       -2.5394047428       -1.1905851494
 C          5.6035810013       -2.1560748035       -0.3318666756
 H          5.6391814115       -2.7960735299        0.5503905736
 H          6.4976573319       -2.3665352390       -0.9221453703
 C          5.6325707082       -0.6824930634        0.0976082078
 H          4.9505804709       -0.1062591546       -0.5320780940
 H          6.6338589014       -0.2758747353       -0.0616717779
 C          5.2748905367       -0.4421683228        1.5645541048
 H          5.2907023565        0.6352339717        1.7496614202
 H          6.0292200260       -0.9032848750        2.2060623622
 C          3.8946115968       -0.9736407483        1.9731956876
 H          3.9162771525       -2.0610591305        2.0429362154
 H          3.6466909092       -0.5646235491        2.9559407889
 H          4.5802530937       -3.5310930672       -1.6108496833
 H          4.3060658699       -1.8373926999       -2.0224543485
 H          3.1650760584       -3.2076247959        0.4513565161
 H          2.3208847210       -3.0661657608       -1.1011039178
 O          1.5843495462       -0.8220329064       -0.9795349644
 C          0.9612618096        0.4137037776       -0.8551876949
 O          0.1590634150        0.6652133509       -1.7702225184
 O          2.4222431185        1.4149977499        2.3052199961
 C          0.5905961050        2.5402412805        0.4602646942
 C         -0.8891936075        2.3698596107        0.2292081356
 C         -1.6106972630        3.0576355367       -0.7360679113
 C         -2.9586798023        2.7993667720       -0.9193327560
 C         -3.6143741643        1.8576833796       -0.1481658652
 C         -2.9013841411        1.1678253963        0.8241405750
 C         -1.5548357022        1.4319573670        1.0100890196
 H         -0.9990740907        0.8854524966        1.7630462266
 N         -3.5555053173        0.1949298918        1.6118169035
 S         -4.1971935569       -1.1175877506        0.7905876589
 O         -5.3280717576       -0.6757405807        0.0152518706
 O         -4.4701671109       -2.1054036617        1.8107829904
 C         -2.8981813960       -1.6912682187       -0.2865371865
 C         -1.9668890731       -2.5755799979        0.2200274442
 C         -0.9357979307       -3.0041931622       -0.5992098614
 C         -0.8490881409       -2.5348964776       -1.9005756160
 C         -1.7847498318       -1.6379144372       -2.3898558483
 C         -2.8211499018       -1.2093548288       -1.5771001746
 H         -3.5685080578       -0.5145515467       -1.9234396243
 H         -1.7019653889       -1.2610227026       -3.3958985832
 H         -0.0413303611       -2.8599396473       -2.5372317480
 H         -0.2014845344       -3.6964790852       -0.2180113020
 H         -2.0739747102       -2.9238216233        1.2353762729
 H         -2.9824444174       -0.1431108876        2.3725836606
 H         -4.6582521222        1.6307415017       -0.2932293901
 H         -3.5054099173        3.3348547382       -1.6806998012
 H         -1.1124737573        3.7757891482       -1.3660617432
 H          0.7444340122        2.7610063035        1.5302408163
 C          1.2003720835        3.7011856624       -0.3096040535
 C          2.6548364524        3.7015826201       -0.6717045745
 C          1.6159501935        3.5864060954       -1.7444467321
 H          1.4555555947        4.4360427987       -2.3921537148
 H          1.4767542784        2.6341307586       -2.2307874723
 H          3.2067553766        4.6253145149       -0.5824360520
 H          3.2321536682        2.8232322107       -0.4214217685
 H          0.7844724778        4.6546879724        0.0017266967
