  62
        -98.94274122
 C         -1.8124440507       -0.9750111305       -0.2486845098
 C         -3.1870555506       -1.3160531308       -0.1686235698
 C         -4.1383042208       -0.2502051510       -0.5018008401
 C         -3.6810824311        0.9679706990       -0.8432991703
 C         -4.5221547713        2.1501966287       -1.2420790806
 C         -5.0702142015        2.9581722889       -0.0577783308
 C         -6.1943343314        2.2811419388        0.7273247493
 H         -6.6296847216        3.0388824189        1.3818298091
 H         -6.9757121613        1.9597813485        0.0378566793
 C         -5.7396515212        1.0914492891        1.5843329495
 H         -6.1810056113        1.1699723392        2.5804555295
 H         -4.6551970212        1.1278504694        1.7113310296
 C         -6.1263109509       -0.2775351511        1.0246040198
 H         -5.7227187008       -1.0466296709        1.6881959600
 H         -7.2140277709       -0.3770079313        1.0174895098
 C         -5.6023560808       -0.5519442213       -0.3910448101
 H         -5.7405046706       -1.6142671314       -0.6074381899
 H         -6.1666079309        0.0294282384       -1.1201799803
 H         -4.2442696816        3.1926826292        0.6175770792
 H         -5.4517822317        3.9010061087       -0.4564008211
 H         -5.3491821012        1.8151036784       -1.8688881506
 H         -3.8785832314        2.8030591387       -1.8356960607
 O         -2.3560197611        1.2642605393       -0.8827523003
 C         -1.3897033210        0.3144599795       -0.5716325201
 O         -0.2256283510        0.7509976497       -0.6218345501
 O         -3.5984245404       -2.4586361708        0.1659928304
 C         -0.7995426305       -2.0566601202        0.0772291504
 C          0.2696786993       -1.5298637498        1.0016128504
 C         -0.1093294608       -1.0344304996        2.2474378203
 C          0.8330289590       -0.5481184892        3.1314820902
 C          2.1758486891       -0.5498535290        2.7952710603
 C          2.5671730992       -1.0482455192        1.5588744404
 C          1.6155946394       -1.5370034996        0.6719642704
 H          1.9459558695       -1.8972119798       -0.2871792995
 N          3.9293692992       -1.1104538290        1.2206838905
 S          4.5372485892       -0.6073153692       -0.2520238796
 O          3.8732836094       -1.2977628896       -1.3266831295
 O          5.9635785093       -0.8249777789       -0.1405545695
 C          4.2223194189        1.1474010107       -0.3274030900
 C          2.9327787888        1.6011579304       -0.5185944902
 C          2.7064634885        2.9692925103       -0.5347541405
 C          3.7600246183        3.8532657806       -0.3629044906
 C          5.0492536984        3.3792806909       -0.1704489604
 C          5.2835998787        2.0144658409       -0.1478334501
 H          6.2682210088        1.5999925212       -0.0029982000
 H          5.8685571283        4.0673744611       -0.0370299706
 H          3.5744653481        4.9158382106       -0.3791330708
 H          1.6979948584        3.3229818701       -0.6799878906
 H          2.1160848489        0.9089295302       -0.6477832901
 H          4.5497493492       -0.8112994988        1.9594887004
 H          2.9147299290       -0.1727796088        3.4860825902
 H          0.5222686889       -0.1629847491        4.0910670301
 H         -1.1588674008       -1.0321312498        2.5099810402
 H         -1.3786338104       -2.8149908902        0.6317261006
 C         -0.2316355803       -2.7584048004       -1.1475267394
 C         -1.0116126102       -2.8637674308       -2.4228243794
 C          0.2161545596       -2.0076894405       -2.3642400895
 H          1.1114734597       -2.3387901405       -2.8705712394
 H          0.0960602094       -0.9356327806       -2.3622178998
 H         -0.9692488100       -3.7914808409       -2.9734734792
 H         -1.9734119103       -2.3733691610       -2.4661382695
 H          0.3564060298       -3.6306509502       -0.8766293992
