  62
        -98.93962916
 C          2.4837820194        1.0567650491        0.3650877256
 C          2.4824373378       -0.1345875004        1.1382835686
 C          3.6158837354       -1.0434892053        0.9397889408
 C          4.5979836524       -0.7041686380        0.0854060242
 C          5.8443001168       -1.4986175122       -0.1968568639
 C          5.6594163317       -2.6033582044       -1.2457565818
 C          4.8525623144       -3.8147734279       -0.7773039855
 H          4.9840340725       -4.5973761287       -1.5270326082
 H          5.2683523903       -4.1873685233        0.1592647248
 C          3.3509058905       -3.5457944504       -0.6044090086
 H          3.0806289976       -2.6257678178       -1.1283451300
 H          2.7790370518       -4.3540663702       -1.0658229179
 C          2.8873192047       -3.4383962795        0.8486913255
 H          3.0251364159       -4.3993205234        1.3497581188
 H          1.8179813462       -3.2081396105        0.8509880523
 C          3.6071110341       -2.3557315649        1.6637395390
 H          3.0637343934       -2.2145148007        2.6013800356
 H          4.6250081863       -2.6715179772        1.8923647345
 H          5.1857962491       -2.1702141954       -2.1296215384
 H          6.6550095167       -2.9468255257       -1.5356491166
 H          6.5854414772       -0.7891553547       -0.5709199941
 H          6.2165411091       -1.9345406983        0.7306295976
 O          4.5757559801        0.4538979471       -0.6215769765
 C          3.5172080378        1.3477134764       -0.5262897903
 O          3.6432404647        2.3372589350       -1.2734638956
 O          1.5795980004       -0.4174290243        1.9725843568
 C          1.3056947522        1.9959408657        0.5605988762
 C          0.2709042531        1.8203704132       -0.5258908713
 C          0.5387686906        2.1561625532       -1.8491673869
 C         -0.4308739541        1.9889950638       -2.8205596947
 C         -1.6788127487        1.4878730739       -2.4951574198
 C         -1.9590704498        1.1547092127       -1.1747565869
 C         -0.9834915949        1.3228218495       -0.2017338694
 H         -1.2043549218        1.0422613067        0.8173198413
 N         -3.2375269739        0.6920826290       -0.8176833156
 S         -3.4059044077       -0.4419192672        0.4209794775
 O         -3.2355251292        0.2230089426        1.6878408881
 O         -2.5608274083       -1.5880162974        0.1682089157
 C         -5.1226068158       -0.8722656449        0.2027422198
 C         -5.4612255118       -2.0584808753       -0.4195757839
 C         -6.8018366603       -2.3598573366       -0.6039131925
 C         -7.7750019755       -1.4733586608       -0.1682548034
 C         -7.4195734805       -0.2865340026        0.4558367044
 C         -6.0815909626        0.0198806563        0.6447649695
 H         -5.7576528453        0.9245736744        1.1320902928
 H         -8.1790415416        0.3989597804        0.7956617200
 H         -8.8171941543       -1.7099687428       -0.3134681260
 H         -7.0811358091       -3.2831507551       -1.0854287831
 H         -4.6702043987       -2.7197103827       -0.7353002408
 H         -3.7907054383        0.4290543460       -1.6225760161
 H         -2.4328262219        1.3582945668       -3.2567895601
 H         -0.2105797564        2.2481583717       -3.8452651784
 H          1.5167273468        2.5309994756       -2.1084791863
 H          0.8435207527        1.6774215328        1.5057120230
 C          1.7045316436        3.4531270606        0.6920799072
 C          0.7504831461        4.4042733068        1.3474429221
 C          2.0150102035        4.0085491950        2.0478525252
 H          2.8076552691        4.7361576552        2.1363334039
 H          1.9422210734        3.3371351036        2.8914047800
 H          0.6716487662        5.4064284283        0.9553277217
 H         -0.1807593700        4.0000761829        1.7161086662
 H          2.2906107361        3.8178487060       -0.1409203501
