  62
        -98.94076010
 C          1.8468184400        0.7195418698        0.5117387398
 C          2.3189317498       -0.0677641612       -0.5679586295
 C          3.4696778498       -0.9368391510       -0.2690372889
 C          3.9477916399       -0.9991959799        0.9860117411
 C          5.1486566899       -1.7920691696        1.4113314617
 C          6.4286968699       -0.9492940497        1.3204819809
 C          6.5953066199       -0.2196984809       -0.0126012598
 H          5.8081854799        0.5316052690       -0.1095651104
 H          7.5463901799        0.3156685091        0.0267877096
 C          6.5745027097       -1.1351821920       -1.2446800990
 H          7.3856159996       -0.8400301426       -1.9136244993
 H          6.7626517097       -2.1663744017       -0.9434705081
 C          5.2809997996       -1.0735426726       -2.0594240089
 H          5.4539804395       -1.5830754535       -3.0110561485
 H          5.0410478596       -0.0315414228       -2.2860802798
 C          4.0516558696       -1.7222566420       -1.4103275982
 H          3.2638730896       -1.7772335726       -2.1677396281
 H          4.2951854996       -2.7390677917       -1.0953177574
 H          7.2854989399       -1.6043124296        1.4883636313
 H          6.4097230501       -0.2037583590        2.1189503802
 H          5.2367324298       -2.6753679001        0.7816599725
 H          5.0044060800       -2.1077957087        2.4460669820
 O          3.4059843501       -0.3008950990        2.0168787206
 C          2.3542785701        0.5759498909        1.8054996699
 O          1.9534537202        1.1502523918        2.8381416795
 O          1.8214773497       -0.0534762922       -1.7223486695
 C          0.7016178700        1.7036674897        0.3421163791
 C         -0.4302096901        1.0547330191       -0.4161292002
 C         -0.9253075102        1.5279847981       -1.6232514806
 C         -1.9653912703        0.8717044276       -2.2588925999
 C         -2.5381117303       -0.2575244719       -1.7047308689
 C         -2.0581876702       -0.7321362809       -0.4900781785
 C         -1.0196379101       -0.0715108004        0.1468233108
 H         -0.6410949400       -0.4459710396        1.0907218411
 N         -2.6455664902       -1.8697361703        0.0897071626
 S         -4.3158718502       -1.9666936202        0.1030022228
 O         -4.6382733802       -2.7856670692        1.2507595336
 O         -4.7855426204       -2.4565893013       -1.1690447267
 C         -4.8788655701       -0.2912856500        0.3489490114
 C         -4.4952650000        0.3592510910        1.5050670108
 C         -4.8884252199        1.6735709312        1.6968129297
 C         -5.6546417799        2.3121777404        0.7334777192
 C         -6.0373115101        1.6433934794       -0.4186190902
 C         -5.6451254602        0.3290654892       -0.6164772091
 H         -5.9177145803       -0.2269988415       -1.4985899786
 H         -6.6352095001        2.1416701488       -1.1645057006
 H         -5.9550275099        3.3370586306        0.8840867183
 H         -4.5920496298        2.1946061520        2.5931532492
 H         -3.9034361499       -0.1666222684        2.2373954412
 H         -2.2541007001       -2.1264848796        0.9834641727
 H         -3.3355419004       -0.7894039623       -2.1978327983
 H         -2.3309838804        1.2414660368       -3.2045925702
 H         -0.4777849202        2.3934191576       -2.0827592314
 H          0.3455373101        1.8987883606        1.3672085590
 C          1.1201978700        3.0496580092       -0.2309471621
 C          2.5024138001        3.5848677493       -0.0071375927
 C          2.0709176499        3.1755980881       -1.3817407023
 H          1.8904404499        3.9509543675       -2.1120383930
 H          2.4716895198        2.2670443277       -1.8016943216
 H          2.6173147301        4.6368121595        0.2071532463
 H          3.2039798001        2.9542622297        0.5202478077
 H          0.3139060301        3.7749989393       -0.1844624527
