  62
        -98.94077516
 C         -1.7252788252       -0.3095420532        0.5288745106
 C         -2.9325142143       -0.4158078578        1.2657030815
 C         -4.1436465908       -0.6959539017        0.4870993394
 C         -4.0609789656       -0.8234504807       -0.8494531029
 C         -5.2008995229       -1.1316037135       -1.7820096059
 C         -6.0181304029        0.0994186986       -2.1972256827
 C         -6.9189817971        0.6806796277       -1.1067161334
 H         -7.5896258626        1.3930980347       -1.5913143271
 H         -7.5370148575       -0.1129851460       -0.6857179460
 C         -6.1652302243        1.4013559276        0.0198470676
 H         -5.1488748803        1.6291544973       -0.3100481256
 H         -6.6530888580        2.3553423281        0.2326820495
 C         -6.0964216289        0.6249442179        1.3349887710
 H         -7.1023134656        0.5069014214        1.7440197690
 H         -5.5099037550        1.2096983594        2.0483862181
 C         -5.4512597224       -0.7620737302        1.2168528545
 H         -5.2518336657       -1.1336738868        2.2250263297
 H         -6.1313464450       -1.4519834107        0.7175917451
 H         -5.3311412066        0.8712262779       -2.5520760232
 H         -6.6483062455       -0.1968122858       -3.0390014336
 H         -4.7582864974       -1.5689104611       -2.6794997964
 H         -5.8599853906       -1.8696861774       -1.3239887148
 O         -2.8880702471       -0.6972255404       -1.5226070767
 C         -1.6971488257       -0.4136186331       -0.8629747265
 O         -0.7210878451       -0.2877468844       -1.6242586372
 O         -2.9943907746       -0.2798609063        2.5167773551
 C         -0.4559919832        0.0014598148        1.3010435689
 C          0.2980112067        1.1259656185        0.6380550145
 C         -0.3458263890        2.3489964502        0.4625091431
 C          0.2965832585        3.4053348850       -0.1511886000
 C          1.6062256404        3.2743530926       -0.5804071528
 C          2.2605328732        2.0631327380       -0.4022036989
 C          1.6041404748        0.9963096483        0.1964342501
 H          2.1229641645        0.0583722338        0.2982228183
 N          3.5857333167        1.8887894636       -0.8287882585
 S          4.6591704263        1.0707815677        0.1590694860
 O          4.3515901933        1.2699020958        1.5566347974
 O          5.9670165353        1.5193076438       -0.2710453769
 C          4.4782176020       -0.6469417921       -0.2700033701
 C          4.4041910276       -0.9977606967       -1.6031932324
 C          4.3127571201       -2.3393776136       -1.9371046277
 C          4.3048986882       -3.3025289994       -0.9396091107
 C          4.3831082079       -2.9339326520        0.3947346503
 C          4.4712307255       -1.5932000496        0.7354796733
 H          4.5239206464       -1.2613401561        1.7603249325
 H          4.3749702890       -3.6840978218        1.1697424834
 H          4.2337050772       -4.3461857873       -1.2027036945
 H          4.2469319026       -2.6299176507       -2.9732119233
 H          4.4124478623       -0.2237278650       -2.3521168678
 H          4.0095629247        2.7034441203       -1.2482138159
 H          2.1137907684        4.1007245127       -1.0548367496
 H         -0.2203954718        4.3432642176       -0.2895421302
 H         -1.3663359863        2.4549478136        0.8059967806
 H         -0.8150218294        0.3703126307        2.2773752029
 C          0.4122097010       -1.2131183227        1.5927035043
 C         -0.1926857737       -2.5763434964        1.7401652495
 C          0.6840915755       -2.2692405013        0.5652034534
 H          1.6711559297       -2.7065484998        0.5310462743
 H          0.2274578462       -2.1500724507       -0.4043661118
 H          0.1892045279       -3.2247457455        2.5141965454
 H         -1.2560710891       -2.6719289210        1.5752645314
 H          1.2260166324       -0.9721438912        2.2710564349
