  62
        -98.93752628
 C         -2.2684033531       -0.6879972729        0.0873889837
 C         -3.1425615849       -0.2753816188        1.1267874099
 C         -4.0835792364        0.8144285037        0.8203339519
 C         -4.0628798740        1.3628998332       -0.4063901495
 C         -4.9627143053        2.4385977061       -0.9486069705
 C         -6.1707878582        1.8220373936       -1.6742008624
 C         -7.3678673611        1.5061933213       -0.7783499068
 H         -7.8374648371        2.4408912453       -0.4648289073
 H         -8.0943582178        0.9627224243       -1.3868885223
 C         -7.0514326432        0.6756098166        0.4681221397
 H         -6.3637080795       -0.1310853568        0.2077147250
 H         -7.9802062773        0.2114761581        0.8055240315
 C         -6.4666624528        1.5100715815        1.6174602178
 H         -6.5984242210        2.5682780284        1.3927407369
 H         -7.0331473191        1.3148964162        2.5303537418
 C         -4.9925487376        1.2306673384        1.9444300109
 H         -4.5617100808        2.1113387044        2.4323835320
 H         -4.9289942515        0.4122141433        2.6683328492
 H         -5.8324230665        0.9098071450       -2.1724856772
 H         -6.5031871500        2.5135861759       -2.4511076477
 H         -5.2800394642        3.1112080862       -0.1573803624
 H         -4.3718852452        3.0018112678       -1.6740148015
 O         -3.2047616701        0.9444587537       -1.3747645960
 C         -2.2950776490       -0.0778781855       -1.1660713029
 O         -1.5919131773       -0.3219320976       -2.1689094193
 H          0.3721250905       -0.4327558775       -1.1776702670
 C          0.8123428937       -0.6446838517       -0.2143571729
 C          0.0733273318       -1.3395048494        0.7324941873
 C          0.6556249221       -1.6017829499        1.9669645412
 C          1.9437803676       -1.1776575971        2.2427532355
 C          2.6744072221       -0.4799813150        1.2978539471
 C          2.1006570178       -0.2099145805        0.0622628026
 N          2.8229137702        0.5217729718       -0.8977750152
 S          4.3632474729       -0.0126129114       -1.2996083439
 O          4.6161927438        0.5112423119       -2.6240464854
 O          4.4864861995       -1.4435005812       -1.1406057183
 C          5.4217433193        0.8218732406       -0.1357173664
 C          5.3490196640        2.1990881973       -0.0601514610
 C          6.1725757582        2.8641961380        0.8340367823
 C          7.0520901067        2.1455689790        1.6303588387
 C          7.1159873232        0.7635907931        1.5395725993
 C          6.2938915610        0.0919469866        0.6479850938
 H          6.3035916246       -0.9815678997        0.5470023575
 H          7.8005781036        0.2069208188        2.1591459430
 H          7.6915184828        2.6662121147        2.3255990209
 H          6.1255723169        3.9388018276        0.9076943394
 H          4.6540510571        2.7193320934       -0.6982371667
 H          2.2875835625        0.7151626591       -1.7325046508
 H          3.6768932069       -0.1445169087        1.5077475897
 H          2.3833250752       -1.3896046844        3.2053609507
 H          0.0872557000       -2.1341933476        2.7154891553
 C         -1.3199929796       -1.8290060520        0.4144857178
 H         -1.7280628344       -2.2841387929        1.3269754928
 C         -1.2663027065       -2.8923877500       -0.6662621056
 C         -0.8235421833       -4.2765747197       -0.3027367453
 C         -2.2587634407       -4.0140796626       -0.6455958115
 H         -2.6424787997       -4.3789200840       -1.5865393701
 H         -2.9839221822       -4.0245618423        0.1551079856
 H         -0.2158188657       -4.8235179367       -1.0072405078
 H         -0.5764664711       -4.4671785750        0.7305619832
 H         -0.9713334289       -2.5080095462       -1.6342949234
 O         -3.1440890142       -0.8098475479        2.2680076878
