  62
        -98.93621688
 C         -2.6011127957       -0.0035105124        0.5725048433
 C         -2.2176213488        0.5701255586       -0.6660998484
 C         -1.7037254714        1.9471972498       -0.6122907572
 C         -1.5748347655        2.5573757506        0.5782719452
 C         -0.9080022500        3.8833516624        0.8081640587
 C          0.6228337744        3.6943732953        0.7593350595
 C          1.3103476678        4.4216967617       -0.3961519018
 H          1.3487779481        5.4901343553       -0.1716187483
 H          2.3374495762        4.0538048021       -0.4418805520
 C          0.6569695957        4.2513512951       -1.7711975300
 H         -0.1939810602        4.9291883303       -1.8585964884
 H          1.3898814560        4.5735520287       -2.5140153434
 C          0.1907817250        2.8326367793       -2.1232568138
 H          0.7468555701        2.0844411995       -1.5575251538
 H          0.4005490907        2.6576676137       -3.1808447431
 C         -1.3160074904        2.5863048274       -1.9165195221
 H         -1.8656708020        3.5235865701       -2.0430676927
 H         -1.6622127702        1.8891730360       -2.6851662589
 H          1.0628861138        4.0415375903        1.6961414543
 H          0.8354418194        2.6240120292        0.6916661798
 H         -1.2319095664        4.5980392444        0.0547013775
 H         -1.2173583579        4.2422318826        1.7901982647
 O         -1.9572554603        1.9799024378        1.7480029273
 C         -2.4483805931        0.6855232749        1.7762448739
 O         -2.7124038842        0.2652604616        2.9230103924
 H         -0.3988691569       -1.3562576522        1.0988437992
 C         -0.6219343208       -2.0409653913        0.2914533340
 C         -1.9464639742       -2.2690944279       -0.0630605017
 C         -2.2152106593       -3.1615959015       -1.0904213593
 C         -1.1742852392       -3.7775445817       -1.7653364532
 C          0.1427448092       -3.5014923787       -1.4490518072
 C          0.4203792890       -2.6195074904       -0.4093697437
 N          1.7444642888       -2.3113755611       -0.0478742278
 S          2.0569816935       -0.7715438337        0.5733886022
 O          1.7877424851       -0.7862050317        1.9911614125
 O          1.3800477897        0.2447707005       -0.1975471938
 C          3.8170930059       -0.6709398751        0.3055865584
 C          4.6574412187       -1.3511908986        1.1668569282
 C          6.0247441510       -1.3009133116        0.9473185304
 C          6.5263810210       -0.5750997415       -0.1232129780
 C          5.6711061047        0.1047436548       -0.9771094107
 C          4.3020682274        0.0566342103       -0.7644180371
 H          3.5987722372        0.5730103556       -1.3982354967
 H          6.0633521410        0.6712032799       -1.8062073903
 H          7.5910271081       -0.5365836605       -0.2911125131
 H          6.6927577324       -1.8258389310        1.6108716893
 H          4.2211606344       -1.8922374838        1.9902659408
 H          2.4156508463       -2.5714236125       -0.7577727451
 H          0.9502510456       -3.9558696051       -2.0027511168
 H         -1.3936005163       -4.4628488490       -2.5701558265
 H         -3.2345429622       -3.3481880200       -1.3862172965
 C         -2.9910975015       -1.4710965553        0.6795352498
 H         -2.8934647748       -1.7073943062        1.7530653740
 C         -4.4226009773       -1.8043655602        0.2940789064
 C         -5.5060547093       -0.7748707142        0.4115736004
 C         -5.0791564961       -1.2628486472       -0.9384651035
 H         -5.7523653836       -1.9099005366       -1.4818819336
 H         -4.4966403660       -0.6078318006       -1.5655116620
 H         -5.2127762522        0.2209161909        0.7122199413
 H         -6.4678323377       -1.0822745633        0.7940848906
 H         -4.6906422781       -2.8161138801        0.5837682773
 O         -2.2911620096       -0.0298341213       -1.7698180268
