  62
        -98.94446882
 C         -1.8237186814       -1.5356325557        0.0630166016
 C         -1.6653605288       -0.4749876021       -0.8608131272
 C         -2.8114892848        0.4374184332       -0.9944095112
 C         -3.8807765194        0.2751470881       -0.1938307441
 C         -5.0699597450        1.1893776932       -0.1572250695
 C         -4.8555011247        2.3345648085        0.8433765926
 C         -3.5187920419        3.0577320837        0.6780791368
 H         -3.4870284609        3.8570264381        1.4213968384
 H         -2.7089785855        2.3637649581        0.9147468455
 C         -3.2893521675        3.6484166210       -0.7201590404
 H         -4.2384263307        3.7148332658       -1.2534279244
 H         -2.9050749477        4.6651597429       -0.6154819329
 C         -2.2823672097        2.8787359323       -1.5761252916
 H         -1.3453582731        2.7577877017       -1.0291465279
 H         -2.0624265136        3.4771620765       -2.4644341837
 C         -2.7342168203        1.4959829064       -2.0598399593
 H         -1.9893333599        1.1423946451       -2.7794451301
 H         -3.6932903873        1.5827767763       -2.5754965174
 H         -4.9006456249        1.9231714855        1.8543489973
 H         -5.6733639712        3.0483599990        0.7302986708
 H         -5.2436814892        1.5915529287       -1.1535447828
 H         -5.9421527435        0.6092276278        0.1481505735
 O         -3.9705015516       -0.7180754564        0.7267521967
 C         -2.9644656535       -1.6592475978        0.8597466424
 O         -3.1941829856       -2.5390081335        1.7134395311
 O         -0.6266851249       -0.2903659678       -1.5481783718
 C         -0.7478378921       -2.5974723929        0.2332194774
 C          0.4559736530       -1.9992147896        0.9204016908
 C          0.3550954019       -1.6926382373        2.2762305019
 C          1.4241086328       -1.1506284427        2.9620172028
 C          2.6140407698       -0.8892002846        2.3042555683
 C          2.7210143676       -1.1781973433        0.9502861687
 C          1.6490694226       -1.7368770807        0.2649987763
 H          1.7593533813       -1.9353453383       -0.7878578813
 N          3.9156061836       -0.9086071316        0.2487179509
 S          3.8241083035        0.2339348023       -0.9793652193
 O          3.0607982747       -0.2875367797       -2.0799950350
 O          5.2013325469        0.5778412190       -1.2652966899
 C          3.0156981935        1.6098858191       -0.1821557384
 C          1.6395751980        1.6291280467       -0.0715092077
 C          1.0535764743        2.6278697320        0.6919480406
 C          1.8381645600        3.5869404899        1.3126418697
 C          3.2177411404        3.5604392554        1.1765829419
 C          3.8138672463        2.5551059685        0.4336680311
 H          4.8825924330        2.4876967372        0.3075784485
 H          3.8270846216        4.3105868898        1.6543051064
 H          1.3691462761        4.3576071935        1.9038575549
 H         -0.0195034411        2.6451489476        0.8054760922
 H          1.0486232948        0.8822286561       -0.5804871707
 H          4.6865753100       -0.6663228520        0.8568973931
 H          3.4533061447       -0.4646521855        2.8344173984
 H          1.3317465973       -0.9268175092        4.0137817742
 H         -0.5794020943       -1.8925266226        2.7826644917
 H         -1.1779741413       -3.3442988235        0.9156118730
 C         -0.4270497599       -3.2764916638       -1.0809351684
 C          0.2350865206       -4.6201954199       -1.0692099403
 C         -1.2013695105       -4.4956702822       -1.4780625399
 H         -1.4561986242       -4.6278568935       -2.5189621651
 H         -1.9598812369       -4.8501051706       -0.7949382094
 H          0.9701358911       -4.8387270265       -1.8289110773
 H          0.4516883916       -5.0610377652       -0.1077583649
 H         -0.1550015398       -2.5850356600       -1.8692388081
