  62
        -98.94453855
 C         -2.6118286207       -1.2629112571        0.1170312566
 C         -2.6388505193       -0.3019526960       -0.9225292209
 C         -3.5163053359        0.8583960413       -0.7037833356
 C         -4.2373694836        0.9449638177        0.4279453488
 C         -5.1258241056        2.0960823542        0.7981090597
 C         -4.3608605655        3.1501742170        1.6104996337
 C         -3.0245546052        3.5606820424        0.9910985449
 H         -2.5922819667        4.3326353949        1.6316380907
 H         -2.3391809327        2.7094693488        1.0140923345
 C         -3.1256150722        4.0894291169       -0.4464868828
 H         -4.1537446046        4.3825205146       -0.6625764512
 H         -2.5066312599        4.9849509863       -0.5331470600
 C         -2.6416991180        3.1111135602       -1.5186805829
 H         -2.5458508050        3.6594582414       -2.4599465635
 H         -1.6458497348        2.7429793595       -1.2543957487
 C         -3.5536134842        1.9055232146       -1.7812116671
 H         -3.1997034569        1.4136136982       -2.6919441826
 H         -4.5759326961        2.2487592366       -1.9514205079
 H         -4.9972194950        4.0301369898        1.7198609332
 H         -4.1647800431        2.7456535787        2.6060559584
 H         -5.9496549351        1.7128716002        1.4024955628
 H         -5.5294946651        2.5430979058       -0.1081518104
 O         -4.2006087321       -0.0037619827        1.3967983789
 C         -3.3820688455       -1.1118486009        1.2754150918
 O         -3.4327056968       -1.8906879569        2.2479225813
 O         -1.9780847905       -0.3860959929       -1.9932458583
 C         -1.7345172422       -2.5070087537        0.0756560851
 C         -0.3077199232       -2.1239203562        0.3885994764
 C          0.2390649645       -2.3958393576        1.6378397592
 C          1.5276492663       -1.9962764756        1.9453227609
 C          2.2938846256       -1.3121763826        1.0182378128
 C          1.7514377864       -1.0243656155       -0.2269387889
 C          0.4663511038       -1.4420920752       -0.5394074250
 H          0.0440341495       -1.1929540067       -1.5011677259
 N          2.5139376509       -0.3072500799       -1.1698283516
 S          3.1148020853        1.1813036761       -0.6687255339
 O          2.2891605173        1.7663419336        0.3635600492
 O          3.2812680928        1.9574537674       -1.8782739210
 C          4.7228368570        0.7819970177       -0.0151886357
 C          5.0524089957        1.1419458652        1.2766972014
 C          6.3121137910        0.8236037765        1.7603907701
 C          7.2148253914        0.1551638001        0.9476950881
 C          6.8691107379       -0.1971108729       -0.3486133944
 C          5.6122764611        0.1195153741       -0.8386157174
 H          5.3048604845       -0.1321983428       -1.8398016325
 H          7.5738230851       -0.7169276539       -0.9774643958
 H          8.1935230633       -0.0927489594        1.3271101477
 H          6.5824439843        1.0970136615        2.7677233823
 H          4.3150271384        1.6547933751        1.8736699556
 H          2.0392997481       -0.2040093433       -2.0564518539
 H          3.2948818178       -0.9897972601        1.2546940478
 H          1.9386779858       -2.2157693890        2.9189618574
 H         -0.3643326647       -2.9062957260        2.3748558397
 H         -2.0953788230       -3.1482184847        0.8905071037
 C         -1.8548391193       -3.2747089779       -1.2255398154
 C         -1.4243060900       -4.7091068854       -1.2620340887
 C         -2.8798788462       -4.3609115111       -1.3392504113
 H         -3.3936743235       -4.4867332520       -2.2804810311
 H         -3.4988308651       -4.5562454050       -0.4754849302
 H         -0.9359048253       -5.0776977982       -2.1509078339
 H         -1.0558743813       -5.1426306185       -0.3446221075
 H         -1.6773550912       -2.6712441108       -2.1055102418
