  62
        -98.93498625
 C          0.4850180726        1.8688618252        0.2746960830
 C          1.4489381549        1.2912979239        1.1385350823
 C          2.6888466836        0.8110355753        0.5100415724
 C          2.8137880196        0.8885274737       -0.8270865000
 C          3.9764795674        0.3752917981       -1.6280307065
 C          3.8925956317       -1.1587994277       -1.7563986135
 C          5.0286515152       -1.9076461329       -1.0597059847
 H          4.7604798109       -2.9657601902       -1.0360340986
 H          5.9361331848       -1.8136554329       -1.6598372772
 C          5.3586404340       -1.4433551004        0.3622600385
 H          5.9810416915       -2.2184270594        0.8144825521
 H          5.9700416915       -0.5406549921        0.3213632115
 C          4.1550923238       -1.1818134092        1.2768498970
 H          3.2846244801       -1.7402094836        0.9367448301
 H          4.4026760171       -1.5456788390        2.2761291073
 C          3.7682753801        0.3008777394        1.4249654694
 H          4.6599700315        0.9255165958        1.3180062891
 H          3.3762784814        0.4595937279        2.4340243043
 H          2.9325548663       -1.4821230327       -1.3491489848
 H          3.8975899104       -1.4352834211       -2.8115883679
 H          3.9242608878        0.8436717467       -2.6110686140
 H          4.9087128830        0.6706661019       -1.1513811851
 O          1.8385418668        1.3857551698       -1.6295254704
 C          0.6573986481        1.8992149077       -1.1096379717
 O         -0.1248265198        2.3325243326       -1.9747354271
 O          1.2813392057        1.1874812057        2.3837292468
 C         -0.7893377099        2.4077390460        0.8985208430
 C         -1.9915643543        1.9450537595        0.1148929295
 C         -2.9014048988        2.8074139861       -0.4818220790
 C         -3.9772688176        2.3058666018       -1.1927415641
 C         -4.1763904953        0.9433379423       -1.3094321955
 C         -3.2711629194        0.0704764146       -0.7158308643
 C         -2.1900009317        0.5751972120       -0.0134020217
 H         -1.4853795368       -0.1064689466        0.4433659514
 N         -3.4302927052       -1.3179760967       -0.8354624054
 S         -3.0359799153       -2.3252412776        0.4356863174
 O         -3.7882992122       -3.5364696476        0.1819225875
 O         -3.2692706318       -1.6942849119        1.7136085197
 C         -1.3082786003       -2.6950009166        0.2249576652
 C         -0.8499547296       -3.0270342855       -1.0345969237
 C          0.4724356355       -3.4116188644       -1.1853038501
 C          1.3063240085       -3.4685943194       -0.0785938042
 C          0.8340564162       -3.1222375780        1.1778978639
 C         -0.4860304395       -2.7302883555        1.3330745639
 H         -0.8911487685       -2.4481208295        2.2921750247
 H          1.4832360516       -3.1577185376        2.0384737768
 H          2.3297390253       -3.7905499559       -0.1953762689
 H          0.8476177157       -3.6725531388       -2.1619819609
 H         -1.5292409637       -2.9824943787       -1.8695510800
 H         -4.2701913545       -1.6145781201       -1.3103205564
 H         -5.0176029479        0.5533852491       -1.8622697146
 H         -4.6725543041        2.9866685504       -1.6601819641
 H         -2.7559918754        3.8726323918       -0.4125461371
 H         -0.8345735225        1.9276818496        1.8911898358
 C         -0.7720209694        3.9092038318        1.1461682478
 C          0.5158956888        4.6405908700        1.3754490912
 C         -0.2707534592        4.8839866819        0.1244026271
 H         -0.7861468732        5.8276655623        0.0202976914
 H          0.1007862274        4.4841850279       -0.8059488878
 H          0.5386985254        5.4127590828        2.1298059743
 H          1.4334671461        4.0752322020        1.3019056802
 H         -1.6160707757        4.2279290597        1.7505512270
