  62
        -98.93826675
 C         -2.8343347743       -0.1482845816       -0.0174663003
 C         -2.3501703242        0.7258921141       -1.0214455692
 C         -2.2142387329        2.1361714868       -0.6281554638
 C         -2.4880613031        2.5161342596        0.6316061354
 C         -2.3909518572        3.9137343100        1.1795267307
 C         -0.9703274870        4.3194913936        1.5951141431
 C         -0.0122155710        4.6183828516        0.4414464181
 H         -0.4851975245        5.3133087900       -0.2535447933
 H          0.8538304394        5.1247921147        0.8722843410
 C          0.4785688453        3.3788408096       -0.3191749728
 H          1.5544267469        3.4719123437       -0.4894588346
 H          0.3352008326        2.4856305409        0.2954069871
 C         -0.1764263736        3.1668932714       -1.6848031771
 H          0.1926352385        2.2251889731       -2.0997069437
 H          0.1205513738        3.9725412921       -2.3606763797
 C         -1.7082651843        3.1015048433       -1.6584772993
 H         -2.1225209545        4.0934814618       -1.4798549444
 H         -2.0490111303        2.7492779401       -2.6356207857
 H         -1.0558811497        5.2186230130        2.2100745139
 H         -0.5485109558        3.5274508864        2.2191571418
 H         -2.7751480943        4.6243511943        0.4467912846
 H         -3.0313969572        3.9446888792        2.0636095879
 O         -2.9177566333        1.6403674593        1.5790647339
 C         -3.0857995892        0.2998413539        1.2825493766
 O         -3.4752111494       -0.3915795334        2.2460291417
 O         -2.0410313956        0.3745637797       -2.1899329117
 C         -3.0147288496       -1.6457744089       -0.2220940189
 C         -1.7335090254       -2.3395424215        0.1645079020
 C         -1.7125077040       -3.3949511455        1.0670955525
 C         -0.5110999081       -3.9517455510        1.4735352460
 C          0.6917873406       -3.4599634957        0.9982688019
 C          0.6768159944       -2.4124628129        0.0882590324
 C         -0.5252977200       -1.8700686413       -0.3320476795
 H         -0.5246411866       -1.0499146713       -1.0360993555
 N          1.9074320830       -1.8538913329       -0.3559690859
 S          2.5076683468       -0.7980359860        0.8308817061
 O          2.8676512614       -1.5864750534        1.9814969719
 O          1.5652731201        0.2761296788        1.0625205915
 C          3.9726009994       -0.1769874758        0.0288864581
 C          5.1595620623       -0.8699489736        0.1667797677
 C          6.2851682003       -0.4057496199       -0.4951480036
 C          6.2039836947        0.7336963785       -1.2816838835
 C          5.0042879253        1.4171326816       -1.4120899541
 C          3.8749572393        0.9577474801       -0.7530749971
 H          2.9230214529        1.4614381010       -0.8182644238
 H          4.9430137668        2.3029424565       -2.0236790094
 H          7.0812769387        1.0933705477       -1.7957362289
 H          7.2200509299       -0.9332722793       -0.3962015517
 H          5.1740620825       -1.7463537958        0.7931078383
 H          1.7536999581       -1.2986024425       -1.1904209497
 H          1.6359327651       -3.8531167794        1.3374632309
 H         -0.5114005297       -4.7652887167        2.1829886222
 H         -2.6442896373       -3.7589011524        1.4751072366
 H         -3.7868583407       -1.9501072021        0.5023671880
 C         -3.5150305083       -2.0196520818       -1.6092352474
 C         -2.6774568432       -2.7364539366       -2.6212369198
 C         -3.7944012659       -3.4577260828       -1.9328979917
 H         -4.6836480598       -3.6981301472       -2.4952949250
 H         -3.5279720321       -4.1929782109       -1.1884549512
 H         -2.7962535082       -2.4543315061       -3.6560460422
 H         -1.6644891549       -2.9952940656       -2.3552052497
 H         -4.2154207187       -1.2881037139       -1.9975991596
