  62
        -98.94412108
 C         -1.7491627610       -1.2327801298        0.4217393592
 C         -1.8378845608       -0.3079686892       -0.6465676603
 C         -3.1980227308       -0.0119734685       -1.1222658900
 C         -4.2464116709       -0.6411866385       -0.5606503902
 C         -5.6846385209       -0.3961445179       -0.9125818999
 C         -6.2961790805        0.6909939717       -0.0179019192
 C         -5.4467665501        1.9582125214        0.0811952414
 H         -5.9905773299        2.6664283212        0.7101425319
 H         -4.5121300001        1.7237783709        0.5961867012
 C         -5.1271646801        2.6150306921       -1.2689495183
 H         -5.2806407198        3.6925218821       -1.1790927776
 H         -5.8181192303        2.2520423327       -2.0306844684
 C         -3.6894592402        2.4100245920       -1.7509471885
 H         -2.9913461100        2.6854361513       -0.9556353584
 H         -3.5116537801        3.0900142624       -2.5886158582
 C         -3.3392019406        0.9949421622       -2.2287249794
 H         -4.0740377608        0.6622719428       -2.9647586095
 H         -2.3608152807        1.0439269422       -2.7159756794
 H         -7.2844310105        0.9430484222       -0.4066130190
 H         -6.4202218705        0.2828118412        0.9877959006
 H         -5.7530700309       -0.1024473873       -1.9580674297
 H         -6.2372159811       -1.3259819879       -0.7681274404
 O         -4.1168574711       -1.5491116892        0.4401331493
 C         -2.8733056911       -1.8497931098        0.9708666390
 O         -2.8988079412       -2.6686796203        1.9117718685
 H          2.1011910293       -0.4898032709        0.5607773792
 C          1.5122583695        0.0887709288        1.2502617796
 C          0.2333896794       -0.3223105310        1.5881178695
 C         -0.4921327503        0.4413250987        2.4999254600
 C          0.0478862301        1.5871082582        3.0497444306
 C          1.3196909202        2.0034237381        2.6935188607
 C          2.0522535199        1.2510601684        1.7858239802
 N          3.3580606699        1.6243470082        1.4160778603
 S          3.6909909998        1.8221936791       -0.2211573296
 O          4.9182563300        2.5915530787       -0.2411371493
 O          2.5714968699        2.4046362698       -0.9226572592
 C          4.0353105093        0.1837566093       -0.8220094706
 C          5.1117428992       -0.4944260613       -0.2844402811
 C          5.4032860388       -1.7647654911       -0.7543939219
 C          4.6209550385       -2.3282531403       -1.7516697921
 C          3.5458577986       -1.6315114397       -2.2831333316
 C          3.2460466790       -0.3614201399       -1.8154264308
 H          2.4065864992        0.2075268405       -2.1847363104
 H          2.9348942984       -2.0727150291       -3.0548063318
 H          4.8478204082       -3.3176651302       -2.1172078327
 H          6.2363364487       -2.3118738316       -0.3434561823
 H          5.6971986494       -0.0164786019        0.4830370091
 H          3.7158568402        2.4174975278        1.9307660807
 H          1.7399387605        2.9045535577        3.1148179612
 H         -0.5270845697        2.1674285380        3.7560108010
 H         -1.4888291504        0.1198984288        2.7721526499
 C         -0.3967686710       -1.5726015005        1.0230575189
 H         -0.6028988611       -2.2545197409        1.8610200485
 C          0.4736409287       -2.2900222302        0.0132785884
 C          1.5547870385       -3.2163486507        0.4804637677
 C          0.3178544583       -3.7696819700       -0.1593515025
 H          0.3896359981       -4.1819921395       -1.1543505427
 H         -0.4068894018       -4.2685391902        0.4678058373
 H          1.6731781686       -3.3452006514        1.5455949276
 H          2.4799202184       -3.2490441407       -0.0748962324
 H          0.6535363188       -1.6992397497       -0.8773122213
 O         -0.8375283807        0.2407137609       -1.1784864301
