  62
        -98.94459713
 C         -1.7309274402       -1.0722123994       -0.0105811293
 C         -2.9422116201       -1.0766427684        0.7327690907
 C         -4.1159430600       -0.4943258386        0.0756482503
 C         -4.0072601699       -0.0165961697       -1.1769024701
 C         -5.1169377298        0.5795495499       -1.9994468005
 C         -5.3748321494        2.0660759802       -1.7178075517
 C         -6.0507756392        2.3668880515       -0.3794805019
 H         -6.9493817994        1.7568422519       -0.2823845214
 H         -6.3680054489        3.4112377516       -0.4086920228
 C         -5.1498871092        2.1593555123        0.8461814182
 H         -5.2490954090        3.0135589029        1.5198162275
 H         -4.1048021892        2.1238939517        0.5292235682
 C         -5.4634370895        0.9030994530        1.6591084992
 H         -6.4612255195        0.9887270737        2.0951113492
 H         -4.7423582895        0.8370469535        2.4779002793
 C         -5.3914351199       -0.4028748076        0.8571459303
 H         -6.2514696800       -0.4840635479        0.1926364104
 H         -5.4112913401       -1.2387319671        1.5606995710
 H         -6.0172139793        2.4423419398       -2.5173711620
 H         -4.4250794892        2.6031803499       -1.7747632922
 H         -6.0352398399        0.0136099003       -1.8400206400
 H         -4.8202153099        0.4739061590       -3.0452386404
 O         -2.8371306000       -0.0441265006       -1.8640124701
 C         -1.6713955301       -0.5463753604       -1.3010954997
 O         -0.6843330101       -0.4565415213       -2.0601868199
 O         -3.0371157602       -1.5586871174        1.8925500511
 C         -0.5198644603       -1.6830028591        0.6736481811
 C          0.3983113600       -0.6396174489        1.2628578602
 C          0.7537684501       -0.6718460579        2.6060183802
 C          1.6344426004        0.2608028723        3.1274250594
 C          2.1757620606        1.2468740515        2.3217123286
 C          1.8180883105        1.2914697405        0.9811949686
 C          0.9442774603        0.3505611103        0.4585826594
 H          0.6825824102        0.3867804695       -0.5885704506
 N          2.3797076308        2.2844831796        0.1428487877
 S          4.0134013107        2.0610528289       -0.1672318222
 O          4.7526999508        2.3176543497        1.0424450776
 O          4.3239269109        2.9057609879       -1.2980004529
 C          4.1423502902        0.3399146085       -0.6143654907
 C          3.8750340900       -0.0215098825       -1.9194147904
 C          3.8873880997       -1.3643248128       -2.2588422993
 C          4.1549346394       -2.3170788821       -1.2881121286
 C          4.4140655396       -1.9383314811        0.0199646711
 C          4.4061058300       -0.5966031608        0.3645924900
 H          4.6038003401       -0.2599906900        1.3689746897
 H          4.6166186794       -2.6824686405        0.7731933917
 H          4.1626604791       -3.3620332723       -1.5566837277
 H          3.6800538995       -1.6620518636       -3.2742859791
 H          3.6728025802        0.7499161570       -2.6455385011
 H          1.8929263608        2.3555554190       -0.7408037523
 H          2.8753919208        1.9728091916        2.7032562280
 H          1.9016272804        0.2206981331        4.1723516595
 H          0.3285926499       -1.4309201673        3.2459174709
 H         -0.9332730404       -2.2722207383        1.5031776016
 C          0.2762172594       -2.6119196101       -0.2240791181
 C          1.0663299591       -3.7216963798        0.3983194627
 C         -0.1714181110       -4.0319248001       -0.3876188970
 H         -0.0692649212       -4.4942173509       -1.3577468966
 H         -1.0557062311       -4.3413387094        0.1505666433
 H          2.0231871290       -3.9722688104       -0.0307074371
 H          1.0221928891       -3.8260712289        1.4715679428
 H          0.6949989095       -2.1171816309       -1.0909489586
