  62
        -98.94545874
 C         -1.6664787290       -0.9374290203        0.1180311296
 C         -2.6762573489       -0.6188965304        1.0558686497
 C         -3.3467202589        0.6747915197        0.8651745998
 C         -2.9467756390        1.4819781798       -0.1345179701
 C         -3.5697801290        2.8059838698       -0.4679320399
 C         -4.6943747890        2.6460224100       -1.5005666498
 C         -5.6979130590        1.5456710799       -1.1556333500
 H         -6.4604896690        1.5446330600       -1.9373988399
 H         -5.1941129290        0.5772399899       -1.1969577001
 C         -6.3714524590        1.7072467498        0.2143277701
 H         -6.2592471389        2.7342134197        0.5641698502
 H         -7.4412481590        1.5183634598        0.1030184201
 C         -5.8602142789        0.7472236196        1.2902348399
 H         -6.5447280889        0.7945816195        2.1414206000
 H         -5.8839895590       -0.2767389303        0.9086196898
 C         -4.4495278389        1.0307629195        1.8218676199
 H         -4.3749267189        2.0765107395        2.1279661001
 H         -4.2945689489        0.4034544394        2.7049410698
 H         -5.2156790290        3.6005246000       -1.5931219297
 H         -4.2453691890        2.4086132701       -2.4676484699
 H         -3.9596471289        3.2583525197        0.4420109402
 H         -2.7973400190        3.4560445599       -0.8826738298
 O         -1.9459499990        1.1590317399       -0.9925303501
 C         -1.2931103290       -0.0652974701       -0.9052394203
 O         -0.4167110290       -0.2406962400       -1.7689674304
 O         -2.9963545289       -1.3766291905        2.0122213496
 C         -0.9414527290       -2.2643701003        0.2385322794
 C          0.5475996410       -2.0584508103        0.3761288294
 C          1.4834757210       -2.8985837502       -0.2143828708
 C          2.8388883510       -2.6670542902       -0.0526322508
 C          3.2923850510       -1.5920900004        0.6888636193
 C          2.3647109611       -0.7430911404        1.2792403695
 C          1.0085438711       -0.9891274904        1.1332782395
 H          0.2925624511       -0.3256290205        1.6031437796
 N          2.8114012811        0.3738737795        2.0056971196
 S          4.0390597911        1.2926721496        1.3308708097
 O          5.3140637411        0.7322110595        1.7064082296
 O          3.7931133211        2.6437674495        1.7871130799
 C          3.8360886710        1.1769792998       -0.4384504203
 C          4.9045056710        0.7830117399       -1.2184905104
 C          4.7310630810        0.6799509301       -2.5891314804
 C          3.4955260909        0.9606822902       -3.1516211503
 C          2.4323540710        1.3581379101       -2.3555213802
 C          2.6040874810        1.4729412199       -0.9862037602
 H          1.7873673610        1.7756631798       -0.3495962202
 H          1.4616476309        1.5506775601       -2.7829670702
 H          3.3553294409        0.8669604303       -4.2169205203
 H          5.5555766709        0.3727791802       -3.2121802605
 H          5.8425743110        0.5597473698       -0.7365724804
 H          2.0667231711        0.9630873394        2.3479029597
 H          4.3440058610       -1.3954419704        0.8218697293
 H          3.5529892310       -3.3297281302       -0.5165469709
 H          1.1509827310       -3.7354539001       -0.8060158709
 H         -1.3114853090       -2.7165606304        1.1715158293
 C         -1.3142366390       -3.1683403101       -0.9194715107
 C         -1.3979761090       -4.6529279101       -0.7316790609
 C         -2.6498871590       -3.8475326901       -0.9014626508
 H         -3.1998691490       -3.9319009900       -1.8267932108
 H         -3.2757941990       -3.6845164402       -0.0359268607
 H         -1.0898904990       -5.2937728700       -1.5440526610
 H         -1.1809236190       -5.0473745003        0.2495342490
 H         -0.9578522290       -2.7897825500       -1.8709674107
