  62
        -98.94994349
 C         -2.0530516358       -0.7499934356       -0.2209476478
 C         -2.6789514747        0.2419120972        0.5701544376
 C         -2.6599328021        1.6062302216        0.0269114780
 C         -2.0675206504        1.8346660818       -1.1590269625
 C         -1.9671230912        3.1746708680       -1.8275613122
 C         -0.6624676032        3.8961265239       -1.4663141040
 C         -0.3734859275        3.9468746938        0.0341489206
 H         -0.1471471523        2.9417032934        0.3977766877
 H          0.5359378172        4.5378038042        0.1693980050
 C         -1.5017458535        4.5514217159        0.8816452651
 H         -1.0581556304        5.2278336503        1.6154547800
 H         -2.1654063072        5.1453891375        0.2513808063
 C         -2.3240601732        3.5267942986        1.6661922873
 H         -1.6457426150        2.8478806845        2.1907114977
 H         -2.9041789327        4.0623025924        2.4230771602
 C         -3.3097946878        2.6867748559        0.8433445638
 H         -3.9138348906        3.3415866449        0.2112225774
 H         -3.9764800407        2.1740912872        1.5432399901
 H          0.1682717263        3.3809705518       -1.9543452373
 H         -0.7130878239        4.9126971951       -1.8620648735
 H         -1.9962670071        3.0189709608       -2.9076859644
 H         -2.8217772148        3.7819610851       -1.5353916382
 O         -1.4695231198        0.8586023771       -1.8873685896
 C         -1.4245668072       -0.4498200764       -1.4279076939
 O         -0.8105669065       -1.2337312327       -2.1773210842
 O         -3.2356824889       -0.0061583193        1.6748006915
 C         -1.9874547401       -2.1778257038        0.2925000904
 C         -0.5425068815       -2.5640811716        0.4955388839
 C          0.0183374055       -3.7458214517        0.0294786567
 C          1.3631879071       -4.0078252511        0.2296499327
 C          2.1755122345       -3.0973910485        0.8803751242
 C          1.6205572665       -1.9172454824        1.3627955297
 C          0.2687682164       -1.6726817844        1.1871019374
 H         -0.1529232925       -0.7542039978        1.5684697923
 N          2.4066098993       -0.9605073629        2.0358756882
 S          2.4471277419        0.6057385850        1.4458597225
 O          3.4110880177        1.2898276418        2.2798632984
 O          1.1188010463        1.1581962289        1.4155411359
 C          3.1008092371        0.4436724798       -0.2045670267
 C          2.2602543731        0.0300529407       -1.2176746264
 C          2.7839657013       -0.1662243213       -2.4857502381
 C          4.1327742265        0.0540259584       -2.7181393553
 C          4.9650910211        0.4710268991       -1.6896411790
 C          4.4481060980        0.6630243677       -0.4187801178
 H          5.0555723955        0.9885749136        0.4102400017
 H          6.0132711957        0.6433386676       -1.8739255119
 H          4.5353722774       -0.1005267901       -3.7067584410
 H          2.1237414883       -0.4948200557       -3.2728457393
 H          1.2141786348       -0.1357365900       -1.0146360661
 H          3.3492281765       -1.2698206714        2.2293066305
 H          3.2277836379       -3.2952724337        1.0180330328
 H          1.7876496005       -4.9283245743       -0.1409616470
 H         -0.5946990255       -4.4585817086       -0.4969989290
 H         -2.4790667094       -2.1576225022        1.2767539447
 C         -2.7499696717       -3.1171742176       -0.6170289134
 C         -3.3605824543       -4.3697188857       -0.0650916617
 C         -4.2368824105       -3.2222616397       -0.4655814361
 H         -4.8403672844       -3.3171272926       -1.3557339078
 H         -4.6983617692       -2.6318597926        0.3127037239
 H         -3.3667958029       -5.2559398367       -0.6814446158
 H         -3.2334738511       -4.5650916260        0.9889877824
 H         -2.3472404064       -3.1411819958       -1.6231906426
