  62
        -98.94123193
 C         -2.1600020113       -0.7847119903       -0.3417581602
 C         -3.1378477911       -0.6375342807        0.6780388200
 C         -3.7311217513        0.6957248992        0.8328225603
 C         -3.3031735916        1.6974834794        0.0436646805
 C         -3.8415290818        3.0980895494        0.0631721909
 C         -4.9996851820        3.2646382994       -0.9305461389
 C         -6.0700053818        2.1790492292       -0.8179504390
 H         -5.6370974917        1.2206675793       -1.1134528393
 H         -6.8512473020        2.4165954592       -1.5430913088
 C         -6.6925872416        2.0436690688        0.5786263811
 H         -7.7759355316        1.9576308386        0.4720289312
 H         -6.4949437216        2.9439529887        1.1614693013
 C         -6.2243543013        0.8181800887        1.3656731307
 H         -6.3313608312       -0.0767452912        0.7476666705
 H         -6.8812967011        0.6986702484        2.2312086108
 C         -4.7839324212        0.8712364888        1.8908735005
 H         -4.6513990410        0.0368830886        2.5858195003
 H         -4.6254989513        1.8020843687        2.4395081807
 H         -4.5920455321        3.2403652597       -1.9437675589
 H         -5.4531457321        4.2443571393       -0.7698424386
 H         -4.1752477217        3.3376010891        1.0710736510
 H         -3.0344221120        3.7789551195       -0.2129479390
 O         -2.3494853117        1.5289326998       -0.9045802697
 C         -1.7577652016        0.2943815300       -1.1288889000
 O         -0.9123486117        0.3157394403       -2.0470068101
 H          0.7328539486       -0.8705443596       -1.1658512507
 C          0.8654081588       -1.4918614998       -0.2923651108
 C         -0.2071124410       -2.2326340601        0.1839304892
 C         -0.0250926607       -3.0011916303        1.3276216690
 C          1.1988460294       -3.0260355003        1.9737554788
 C          2.2644053592       -2.2831760400        1.4973307388
 C          2.0878460589       -1.5037525298        0.3619867890
 N          3.1645054287       -0.7233449295       -0.1287336210
 S          3.6140143887        0.5755911704        0.8576279893
 O          3.9144408790        0.0710167301        2.1730103791
 O          2.6197790085        1.6274638102        0.7897934697
 C          5.1150113485        1.0953232008        0.0507467892
 C          6.2681620386        0.3687699709        0.2769504288
 C          7.4340615485        0.7449312012       -0.3702229612
 C          7.4268962982        1.8340343914       -1.2291868210
 C          6.2614094780        2.5530541313       -1.4462837607
 C          5.0913120582        2.1809231910       -0.8027027206
 H          4.1633485981        2.7140952409       -0.9366278403
 H          6.2582491378        3.4003168215       -2.1131474505
 H          8.3354458581        2.1259369117       -1.7317960611
 H          8.3427085886        0.1892908714       -0.2036065215
 H          6.2273208689       -0.4648330393        0.9579760287
 H          2.9301876586       -0.3362208293       -1.0355458608
 H          3.2146687393       -2.2766831600        2.0045972087
 H          1.3240229796       -3.6281701505        2.8609838486
 H         -0.8583499305       -3.5657498106        1.7206041990
 C         -1.5510601311       -2.1691988501       -0.5023841606
 H         -2.2308160609       -2.8434203104        0.0357720993
 C         -1.4621235112       -2.6289574998       -1.9439418207
 C         -1.3445762310       -4.0948686197       -2.2306454311
 C         -2.6159113312       -3.3682705898       -2.5493067907
 H         -2.8606685614       -3.1806062696       -3.5839616007
 H         -3.4776403911       -3.5486500101       -1.9232260107
 H         -1.3444771808       -4.7692974899       -1.3877978713
 H         -0.7135778011       -4.4103642894       -3.0470758313
 H         -0.9222799514       -1.9441609396       -2.5845349007
 O         -3.5016764409       -1.5868473709        1.4226151498
