  62
        -98.94792263
 C         -0.9285540602       -1.0766601549        0.7027562664
 C         -1.4455332522       -0.9014065008       -0.6037557267
 C         -2.1735865509        0.3523253403       -0.8349384626
 C         -2.2774999060        1.2589069113        0.1531165100
 C         -2.9593589913        2.5977308616        0.0590936771
 C         -4.4781633161        2.5428699529        0.2739807875
 C         -5.2780577491        1.9334767997       -0.8778868173
 H         -6.3300876877        2.1579038087       -0.6910424533
 H         -5.0009239765        2.4251586327       -1.8110016565
 C         -5.1170181406        0.4142576527       -1.0277047089
 H         -6.0982650242       -0.0435444332       -1.1712201361
 H         -4.7003521250       -0.0010726687       -0.1073830133
 C         -4.2403923947       -0.0172051228       -2.2037282319
 H         -4.1641794008       -1.1074251128       -2.1943060838
 H         -4.7131447978        0.2790081336       -3.1428775656
 C         -2.8172322151        0.5554788048       -2.1722891464
 H         -2.2104967354        0.0265451529       -2.9120027477
 H         -2.8290901107        1.6142361584       -2.4327857007
 H         -4.8226433753        3.5687615413        0.4231708838
 H         -4.6802707032        1.9863845237        1.1918804907
 H         -2.5255966067        3.2252933762        0.8407074830
 H         -2.7416285473        3.0513423162       -0.9088524355
 O         -1.7376111940        1.0659583027        1.3864624738
 C         -1.0507419028       -0.0995406073        1.6890291961
 O         -0.5984221406       -0.1421036322        2.8511209100
 H          1.4530397038       -0.3188884329        0.3435013210
 C          1.7840598884       -1.2433181025       -0.1074014751
 C          1.0759687251       -2.4116346886        0.1429513631
 C          1.5249407259       -3.5941462890       -0.4305778959
 C          2.6371503751       -3.5919833630       -1.2549794537
 C          3.3128335888       -2.4183135076       -1.5347023457
 C          2.8776850493       -1.2315049997       -0.9560137628
 N          3.5372037934       -0.0157751424       -1.1944708507
 S          2.6360688470        1.3864830171       -1.3510612852
 O          1.3612937499        1.1463366212       -1.9855416373
 O          3.5229943574        2.3009359318       -2.0419615900
 C          2.4026231069        1.9682366590        0.3140561194
 C          1.1649075243        2.4565601310        0.6811979799
 C          0.9850426919        2.9318068556        1.9698700325
 C          2.0442821140        2.9138367881        2.8632884467
 C          3.2839136083        2.4271190803        2.4769487920
 C          3.4701192274        1.9504593567        1.1893923501
 H          4.4169752530        1.5609589221        0.8545674855
 H          4.1032912005        2.4137526367        3.1775156838
 H          1.8978139703        3.2771463294        3.8681284185
 H          0.0170630380        3.2963893462        2.2743576865
 H          0.3634869697        2.4339620884       -0.0421075557
 H          4.2859060143       -0.0590358327       -1.8707282836
 H          4.1656475093       -2.4156780286       -2.1963558510
 H          2.9737655603       -4.5165158964       -1.6991643903
 H          0.9990759875       -4.5155593031       -0.2410242828
 C         -0.1348351837       -2.3252261887        1.0412622795
 H          0.2168395721       -2.1918017464        2.0752701231
 C         -1.0202766906       -3.5525633021        0.9802999087
 C         -0.7512112374       -4.7259872101        1.8725988763
 C         -1.9325647479       -3.8419514148        2.1331055239
 H         -2.9211621264       -4.2232091309        1.9257444722
 H         -1.8927753970       -3.1674568443        2.9762830197
 H          0.0880559313       -4.6589477440        2.5481722856
 H         -0.9318776829       -5.7184891332        1.4880279251
 H         -1.3991054413       -3.7411857172       -0.0176654769
 O         -1.3111634117       -1.7467059332       -1.5265604765
