  62
        -98.93805009
 C          2.0692973692        0.8835675723        0.0883156162
 C          2.4495876606       -0.4245770352       -0.2901710967
 C          3.7659702679       -0.8860188657        0.1907537989
 C          4.5053064271       -0.0716068876        0.9631131835
 C          5.8838237087       -0.3254450589        1.5073196267
 C          6.9540841979        0.2495008764        0.5639480071
 C          7.4021773647       -0.6929485592       -0.5524466344
 H          7.9986408045       -1.5003726402       -0.1224605021
 H          8.0548155840       -0.1221739306       -1.2170652893
 C          6.2727914004       -1.3086710126       -1.3826169151
 H          6.6974164238       -1.6372056102       -2.3332866120
 H          5.5245937844       -0.5468784126       -1.6090345646
 C          5.6046059619       -2.5094960817       -0.6963648966
 H          6.2186762649       -2.8245110301        0.1471662130
 H          5.5768333504       -3.3527405365       -1.3897469717
 C          4.1610607833       -2.2767024309       -0.2253979132
 H          3.9388327299       -2.9634106395        0.5984343561
 H          3.4688664810       -2.5299301381       -1.0347508717
 H          7.8334381559        0.5171593314        1.1532365312
 H          6.5580235723        1.1716217794        0.1309080576
 H          6.0409592476       -1.3856336682        1.6819361637
 H          5.9429420128        0.2011575688        2.4621408568
 O          4.0896479767        1.1740510890        1.3226731245
 C          2.8749721185        1.6801702951        0.9036787727
 O          2.6259552112        2.8312961994        1.3143623152
 O          1.7380431852       -1.1769414646       -1.0069041831
 C          0.7350652028        1.4673000769       -0.3482440992
 C         -0.3717562145        0.6761187623        0.3046213400
 C         -0.5918016375        0.8387199413        1.6700859413
 C         -1.5699293545        0.1112035638        2.3206270808
 C         -2.3488531883       -0.7967381954        1.6240516116
 C         -2.1368114043       -0.9656600981        0.2627504520
 C         -1.1617207931       -0.2234001394       -0.3924745771
 H         -1.0018771352       -0.3756983365       -1.4477504106
 N         -2.9262583306       -1.8832395189       -0.4498597697
 S         -4.5791348648       -1.8553430864       -0.2021567140
 O         -4.9033689288       -2.5573612975        1.0147310604
 O         -5.1554142805       -2.3934777219       -1.4142228318
 C         -4.9834072051       -0.1258732445       -0.0298712842
 C         -4.7484707273        0.7044221047       -1.1081213326
 C         -5.0126729028        2.0581589491       -0.9820839648
 C         -5.5023283001        2.5570079336        0.2155384802
 C         -5.7373541773        1.7099940702        1.2870908599
 C         -5.4739837486        0.3546989377        1.1667256655
 H         -5.6410508037       -0.3380247113        1.9752837347
 H         -6.1205068581        2.1004406030        2.2160616646
 H         -5.7027790348        3.6123870668        0.3125297728
 H         -4.8326552389        2.7189257080       -1.8148626204
 H         -4.3736580936        0.2832700940       -2.0270038363
 H         -2.6945642694       -1.9511626569       -1.4295246199
 H         -3.1061715510       -1.3850507877        2.1162501557
 H         -1.7267549221        0.2474633783        3.3798537145
 H          0.0253871692        1.5400751127        2.2149641331
 H          0.7077483645        2.4862257323        0.0610082809
 C          0.6320903415        1.5461262024       -1.8566717213
 C         -0.4049869731        2.4316677859       -2.4777380903
 C          1.0437332310        2.8083084168       -2.5501560194
 H          1.5512446804        2.7315445710       -3.5001846888
 H          1.3932455582        3.6245046041       -1.9347804415
 H         -0.8935117048        2.1009037102       -3.3816508169
 H         -1.0409060594        2.9937648120       -1.8109056895
 H          0.8689926703        0.6115515545       -2.3504117664
