  62
        -98.94825377
 C         -0.7815141804       -1.1637142202        0.5997015692
 C         -1.2448531504       -0.6618683192       -0.6402771504
 C         -2.1890244003        0.4591437608       -0.5551577295
 C         -2.4656701203        1.0100194599        0.6398329509
 C         -3.4188605102        2.1469894698        0.8904016418
 C         -4.8834565402        1.7049288698        1.0230361715
 C         -5.5561012102        1.2766619609       -0.2821108689
 H         -6.6270134502        1.2072061608       -0.0809195790
 H         -5.4166241502        2.0539024715       -1.0338259583
 C         -5.0707346403       -0.0708801087       -0.8349093700
 H         -4.5536562804       -0.6232020094       -0.0467211204
 H         -5.9321004904       -0.6728016684       -1.1334107805
 C         -4.1491817203        0.0369132722       -2.0501660599
 H         -4.7007215503        0.4641945229       -2.8904539496
 H         -3.8346821304       -0.9711935276       -2.3312811907
 C         -2.8892732903        0.8800619719       -1.8113573092
 H         -2.2019184003        0.7168870425       -2.6440934993
 H         -3.1521262302        1.9355892119       -1.7684525684
 H         -4.9377833203        0.8878081492        1.7462700908
 H         -5.4425185301        2.5487084095        1.4342800321
 H         -3.1149880601        2.6082806390        1.8324284122
 H         -3.3338622501        2.8848900104        0.0931165524
 O         -1.8840910903        0.5858639889        1.7950222906
 C         -1.0753860504       -0.5392649512        1.8107984397
 O         -0.6808402604       -0.8741530621        2.9476361094
 H          1.8279323996       -0.4787833807        0.9474582397
 C          2.1212413696       -1.1350357601        0.1398794792
 C          1.3230147195       -2.2295984098       -0.1709188117
 C          1.7270993994       -3.0826405790       -1.1890591124
 C          2.8935069794       -2.8294139185       -1.8898417022
 C          3.6779203895       -1.7317490888       -1.5896164913
 C          3.2897382996       -0.8809873996       -0.5592013106
 N          4.0802179297        0.2223537500       -0.2165075497
 S          3.5014692198        1.5110579394        0.6513698913
 O          4.4966971299        2.5438018295        0.4469899822
 O          3.2717739497        1.1354543483        2.0246969310
 C          1.9757987698        2.0455482401       -0.1040556482
 C          1.7931976798        1.9388442713       -1.4677048183
 C          0.6466512099        2.4733727018       -2.0329583379
 C         -0.2828674301        3.1185382612       -1.2340728874
 C         -0.0893131401        3.2121997301        0.1348066827
 C          1.0473993199        2.6663767396        0.7069609423
 H          1.2312996999        2.7063362587        1.7694375323
 H         -0.8136444700        3.7097337997        0.7592127431
 H         -1.1620460900        3.5527203317       -1.6820033070
 H          0.4859434099        2.3890703827       -3.0955097580
 H          2.5322330998        1.4424036717       -2.0748906087
 H          4.8221102897        0.4641364005       -0.8548774395
 H          4.5853681995       -1.5333344284       -2.1386091611
 H          3.1935618894       -3.4947871479       -2.6849243127
 H          1.1266301093       -3.9407669187       -1.4405729731
 C          0.0639978295       -2.4242858103        0.6357830081
 H          0.3555911994       -2.5651384612        1.6871034480
 C         -0.7679115406       -3.6111607999        0.1945851172
 C         -0.4425538308       -4.9867248603        0.6909492761
 C         -1.6636211407       -4.2777572206        1.1931919566
 H         -2.6333484507       -4.6234915203        0.8676789663
 H         -1.6550949207       -3.8910998814        2.2023571469
 H          0.3952524292       -5.0894087609        1.3640150260
 H         -0.5768871108       -5.8233550398        0.0221409754
 H         -1.1423096506       -3.5054549490       -0.8171009327
 O         -0.9097006904       -1.1357977183       -1.7554184608
