  62
        -98.93606826
 C          1.3046513506        1.6291701119        0.1516997000
 C          2.4394313737        1.2599010633        0.9148333511
 C          3.2516648164        0.1517219971        0.3885280594
 C          2.8578295139       -0.4669408124       -0.7392677442
 C          3.5303295581       -1.6588722650       -1.3605104352
 C          3.1770552009       -2.9396906577       -0.5777576055
 C          4.3638427835       -3.5959273165        0.1284175524
 H          3.9632688492       -4.3505579778        0.8089239559
 H          4.9762866225       -4.1137468639       -0.6127271497
 C          5.2787150612       -2.6517859394        0.9139682984
 H          5.8988186193       -3.2753349067        1.5615637215
 H          5.9589207803       -2.1440373774        0.2284605963
 C          4.5726195295       -1.5968336765        1.7754862194
 H          3.5664541521       -1.9246111772        2.0385003235
 H          5.1269698342       -1.4963918788        2.7109852140
 C          4.5054316328       -0.1939071913        1.1436400715
 H          5.3736881479       -0.0453253485        0.4951893849
 H          4.5633482893        0.5501991997        1.9438543936
 H          2.4084729622       -2.6920248193        0.1577376590
 H          2.7431143038       -3.6757312738       -1.2567676130
 H          3.1766608799       -1.7313175200       -2.3890191530
 H          4.6073093452       -1.5056866285       -1.3739239749
 O          1.7369134473       -0.1161170209       -1.4183036045
 C          0.9305285998        0.9364019463       -1.0019718312
 O         -0.0560550114        1.1336470722       -1.7302584901
 O          2.7577747633        1.8297696895        1.9939872401
 C          0.4355914947        2.7596087873        0.6752030671
 C         -1.0124468945        2.3405319446        0.6325309952
 C         -2.0027502442        3.0323033228       -0.0504788440
 C         -3.3020763198        2.5543398158       -0.0752986757
 C         -3.6416675866        1.3821758539        0.5738474368
 C         -2.6574666489        0.6828801689        1.2607630008
 C         -1.3613400506        1.1689496091        1.2944146185
 H         -0.5950073682        0.6174923297        1.8265914109
 N         -2.9852956025       -0.5272067329        1.9087898843
 S         -3.6277405189       -1.7345144297        0.9375753204
 O         -4.9935143709       -1.4028711471        0.6193838018
 O         -3.4285632371       -2.9599911650        1.6797141338
 C         -2.6336408916       -1.7344578130       -0.5408068357
 C         -3.0768453515       -1.0673612204       -1.6639866120
 C         -2.2656478536       -1.0358365136       -2.7859796388
 C         -1.0328164806       -1.6667514166       -2.7653303711
 C         -0.6024781081       -2.3342451942       -1.6298678477
 C         -1.4054922193       -2.3635519490       -0.5024748887
 H         -1.1061956196       -2.8749848535        0.3994282877
 H          0.3615287916       -2.8169382260       -1.6160468595
 H         -0.3973228110       -1.6297839733       -3.6357418294
 H         -2.5905790726       -0.5085380722       -3.6680487663
 H         -4.0429140833       -0.5905076803       -1.6412318164
 H         -2.2179598530       -0.9054513588        2.4463597831
 H         -4.6446524953        0.9876217481        0.5495373682
 H         -4.0603123197        3.0995477263       -0.6165250459
 H         -1.7540572846        3.9323677193       -0.5877407701
 H          0.7281879319        2.8622797400        1.7339887205
 C          0.6969704792        4.1093084167        0.0246294467
 C          2.0348657372        4.4345388158       -0.5674067820
 C          0.8418718175        4.2701305902       -1.4579491194
 H          0.4245128443        5.1529318879       -1.9199575005
 H          0.7685174145        3.3822733468       -2.0654985756
 H          2.4348219091        5.4260466671       -0.4161415464
 H          2.7853385641        3.6573671413       -0.5672675440
 H          0.2013418286        4.9162271162        0.5558662904
