  62
        -98.94966913
 C         -1.4973503308       -1.0637888270        0.0439993610
 C         -2.5189921347       -0.6423486630        0.9253222143
 C         -3.0621677274        0.6998257712        0.6838406952
 C         -2.5476718126        1.4487462861       -0.3091422101
 C         -3.0333163492        2.8173764340       -0.6881594009
 C         -4.1280056846        2.7451074612       -1.7620889699
 C         -5.2446553169        1.7523746091       -1.4387148533
 H         -5.9740019915        1.8078271340       -2.2495960797
 H         -4.8331462002        0.7405672820       -1.4432203210
 C         -5.9496961044        2.0051149849       -0.0988841383
 H         -5.7495784361        3.0225193971        0.2390593500
 H         -7.0279497517        1.9186342412       -0.2482436389
 C         -5.5739105790        1.0211171265        1.0104538992
 H         -5.6831068372       -0.0028262680        0.6444350959
 H         -6.2801572787        1.1514535075        1.8347149405
 C         -4.1622118433        1.1760412062        1.5906914525
 H         -3.9950786004        2.2144070205        1.8857166968
 H         -4.1005190777        0.5523634304        2.4877203530
 H         -4.5508859429        3.7431716458       -1.8903192838
 H         -3.6665787215        2.4469302669       -2.7062418556
 H         -3.4115235763        3.3199794198        0.2001456522
 H         -2.1850519337        3.3837083957       -1.0770316286
 O         -1.5499263771        1.0199206896       -1.1212298823
 C         -0.9940437483       -0.2374197084       -0.9599128909
 O         -0.0801597828       -0.5047203898       -1.7646821653
 O         -2.9523288667       -1.3551104826        1.8728134384
 C         -0.8768001487       -2.4352620214        0.2312337813
 C          0.6147318611       -2.3191780671        0.4284422532
 C          1.5217546952       -3.2332419299       -0.0945202380
 C          2.8813949455       -3.0716014711        0.1092256132
 C          3.3668098009       -1.9865473105        0.8157804329
 C          2.4670682580       -1.0720389823        1.3496783267
 C          1.1058083109       -1.2581906135        1.1785246860
 H          0.4237314740       -0.5357299463        1.6031766224
 N          2.9046862531        0.0738110028        2.0510429968
 S          2.6087578220        1.5406379370        1.2894722649
 O          3.2369547253        2.5360720202        2.1327640269
 O          1.1964707402        1.6996498752        1.0592374767
 C          3.5130787333        1.4084745137       -0.2428302567
 C          2.9530532711        0.7348897072       -1.3096557273
 C          3.7138629001        0.5599541042       -2.4564604423
 C          5.0079557176        1.0525761997       -2.5162645906
 C          5.5540526478        1.7280557080       -1.4348208484
 C          4.8032892851        1.9031762519       -0.2842847218
 H          5.1829531686        2.4232095285        0.5805854962
 H          6.5596589850        2.1137093384       -1.4835590005
 H          5.5927340179        0.9095273785       -3.4112473475
 H          3.2811560331        0.0341218935       -3.2924242557
 H          1.9414874884        0.3630091714       -1.2477137781
 H          3.8817180359        0.0364761492        2.3109216413
 H          4.4282065974       -1.8437531454        0.9526302370
 H          3.5724592806       -3.7899673989       -0.3042133445
 H          1.1625085080       -4.0721387154       -0.6679439113
 H         -1.3184994454       -2.8335688590        1.1575849372
 C         -1.2573337916       -3.3446885349       -0.9202937134
 C         -1.4492499003       -4.8148889249       -0.7000761922
 C         -2.6349897978       -3.9335037122       -0.9486728036
 H         -3.1463987394       -4.0060863121       -1.8967921382
 H         -3.2865593491       -3.7028968852       -0.1182892782
 H         -1.1486786739       -5.4966902813       -1.4813322991
 H         -1.3042668961       -5.1946845834        0.2999606330
 H         -0.8341034475       -3.0164699149       -1.8632427582
