  62
        -98.93376292
 C         -2.2509266109       -0.2845507702        0.4381707001
 C         -3.4130703407       -0.0176061604        1.2042284004
 C         -4.5316176608        0.6657073699        0.5270400709
 C         -4.3740674510        1.0420952204       -0.7552058390
 C         -5.3748901212        1.7081328108       -1.6612916885
 C         -6.4483816713        0.7340364711       -2.1737854287
 C         -7.0190073211       -0.2091094293       -1.1177428690
 H         -7.6806066613       -0.9154034391       -1.6263597792
 H         -6.2055173111       -0.7889162195       -0.6776336894
 C         -7.8211636709        0.4650697302       -0.0071958586
 H         -8.6575190410        1.0102643405       -0.4503334382
 H         -8.2371268408       -0.3281370300        0.6194071511
 C         -7.0407177807        1.4227179698        0.8956237717
 H         -7.6676289906        1.6306666195        1.7676552019
 H         -6.8720234008        2.3765119400        0.4030543720
 C         -5.7250729406        0.8653876596        1.4299994412
 H         -5.9129154406       -0.1054826106        1.9028279808
 H         -5.3746246005        1.5156564692        2.2406652514
 H         -5.9999448315        0.1205425714       -2.9591753091
 H         -7.2565647213        1.3153662113       -2.6206810483
 H         -5.8293050210        2.5555024206       -1.1566066881
 H         -4.8157902013        2.0913524612       -2.5177557184
 O         -3.2190693612        0.8109606606       -1.4397889393
 C         -2.1362969211        0.1488764704       -0.8832028597
 O         -1.1727169012        0.0244829907       -1.6615966300
 O         -3.5229856905       -0.3443600110        2.4166433103
 C         -1.1145793208       -1.0136568705        1.1329688396
 C          0.1893388592       -0.2868380905        0.9329256897
 C          0.4769027694        0.8314972692        1.7091869801
 C          1.6652393294        1.5192170492        1.5477621502
 C          2.5901142492        1.1083452996        0.6037276398
 C          2.3072861690        0.0008288399       -0.1831448606
 C          1.1198283290       -0.6947338801       -0.0101776807
 H          0.9079251389       -1.5480086899       -0.6364500610
 N          3.2516141788       -0.4128508797       -1.1511784109
 S          4.6507095489       -1.1050908701       -0.5239480215
 O          5.2164410587       -1.8879218496       -1.6011893119
 O          4.3787480291       -1.8157104406        0.7064664483
 C          5.7032566890        0.2915069498       -0.1952486511
 C          6.1392215889        1.0467215902       -1.2665182008
 C          6.9580165790        2.1383830001       -1.0255358705
 C          7.3257938792        2.4530451095        0.2744830595
 C          6.8812911194        1.6832134591        1.3385935693
 C          6.0613123993        0.5902706592        1.1045599290
 H          5.6873667194       -0.0346291711        1.8995233888
 H          7.1683377796        1.9297127786        2.3481815594
 H          7.9632635693        3.3032805294        0.4592926698
 H          7.3062318689        2.7393711204       -1.8500996303
 H          5.8335555887        0.7636504206       -2.2600163909
 H          2.8507958187       -1.0320297394       -1.8422460611
 H          3.5147930492        1.6442619496        0.4631747199
 H          1.8733182996        2.3835821789        2.1597236105
 H         -0.2478093005        1.1565591989        2.4431331203
 H         -1.3723720406       -0.9577054910        2.2031859997
 C         -1.0143810909       -2.4938678904        0.7916717690
 C         -2.2526418410       -3.3250073903        0.6442277088
 C         -1.3848495712       -3.0558672298       -0.5466890712
 H         -0.7888376013       -3.8673690797       -0.9395898417
 H         -1.7410978513       -2.3738862995       -1.3029028109
 H         -2.2612391409       -4.3195427704        1.0638179384
 H         -3.2018808109       -2.8134242202        0.7085090592
 H         -0.1737012108       -2.9629201606        1.2957723286
