  62
        -98.94041485
 C         -0.2126689316       -2.0525608908       -0.1190573533
 C         -1.2182285585       -1.8207708772        0.8472602594
 C         -2.3994008778       -1.0539607821        0.4075958655
 C         -2.4745140662       -0.6548560989       -0.8746330033
 C         -3.5535029444        0.1602869974       -1.5383973575
 C         -3.9514411846        1.4457528826       -0.7947019012
 C         -5.3701683811        1.3945200735       -0.2275953607
 H         -5.7282782264        2.4165982260       -0.0862295554
 H         -6.0227514745        0.9174231630       -0.9616585332
 C         -5.5000046377        0.6713847227        1.1117337117
 H         -6.5651981427        0.5909041728        1.3414867426
 H         -5.0440848941        1.2816818589        1.8949385566
 C         -4.8808613695       -0.7275876350        1.1738684766
 H         -5.0645667159       -1.2734951837        0.2498433667
 H         -5.3864068925       -1.2752362638        1.9723904545
 C         -3.3810664217       -0.7308291440        1.5007775686
 H         -3.0884749712        0.2301542936        1.9397801902
 H         -3.1805195468       -1.4774870804        2.2765806817
 H         -3.8945861860        2.2772653151       -1.4988103076
 H         -3.2341504504        1.6500087948        0.0011850629
 H         -4.4324612305       -0.4684520771       -1.6924536588
 H         -3.1648100558        0.4070587428       -2.5282400159
 O         -1.5125440820       -0.9642986311       -1.7901977487
 C         -0.3403405895       -1.6142580731       -1.4353850406
 O          0.4774204514       -1.7356245262       -2.3652578777
 O         -1.1288457324       -2.2285765596        2.0378772524
 C          1.0858741188       -2.7079380012        0.3169020666
 C          2.1843994680       -1.6742751841        0.2400036255
 C          3.3480193027       -1.8341875258       -0.4996955960
 C          4.2927525516       -0.8227581801       -0.5417341802
 C          4.0956741066        0.3621547409        0.1424501914
 C          2.9384104751        0.5286734518        0.8965024557
 C          2.0008859342       -0.4896446856        0.9455053420
 H          1.1084343181       -0.3546946075        1.5398408020
 N          2.7200927826        1.7125214970        1.6253687933
 S          1.2573018852        2.5142322204        1.5148813838
 O          1.5074328209        3.7981530197        2.1333074176
 O          0.2012489161        1.7235325448        2.0921737361
 C          0.9897785833        2.7310963328       -0.2323796199
 C          0.2725875129        1.7761418595       -0.9218636957
 C          0.1260988803        1.9058985994       -2.2934082038
 C          0.6957841757        2.9875864690       -2.9468539990
 C          1.4076433502        3.9447182867       -2.2387653313
 C          1.5636702178        3.8147546238       -0.8685616880
 H          2.1027712417        4.5378692247       -0.2781269640
 H          1.8439469876        4.7865961795       -2.7517571635
 H          0.5817070703        3.0827231166       -4.0151430130
 H         -0.4174998560        1.1500219601       -2.8381459546
 H         -0.1590311246        0.9500452717       -0.3781492348
 H          3.4794154603        2.3762370917        1.5645239811
 H          4.8307640108        1.1514178329        0.1016469747
 H          5.1917536649       -0.9571101422       -1.1236037943
 H          3.5127558713       -2.7465017077       -1.0482736408
 H          0.9395879089       -2.9672267444        1.3759285038
 C          1.3671794085       -3.9736123155       -0.4618817163
 C          2.2500561773       -5.0310924822        0.1284386234
 C          0.7743756881       -5.2644121873        0.0149792436
 H          0.4168292871       -5.9696342849       -0.7201376454
 H          0.1795571054       -5.2356702141        0.9165070620
 H          2.9069676232       -5.5813495178       -0.5278952317
 H          2.6593498061       -4.8478924911        1.1104937887
 H          1.4069157691       -3.8092564085       -1.5321387926
