  62
        -98.94294690
 C         -2.4963019998       -0.8446696704        0.4856093998
 C         -2.5715435100        0.3531100093       -0.2651362607
 C         -3.7423532302        1.1972450691        0.0046863189
 C         -4.6383051102        0.8229418193        0.9360391089
 C         -5.8717928504        1.5863901392        1.3356821485
 C         -7.0815760602        1.3349010686        0.4251696885
 C         -6.9971616702        1.9761312081       -0.9605355818
 H         -7.9910594201        1.9052135477       -1.4069075719
 H         -6.7625795104        3.0358206282       -0.8553934522
 C         -5.9840306700        1.3138459379       -1.9047785514
 H         -6.4421911998        1.1676494874       -2.8855980414
 H         -5.7232090398        0.3238863681       -1.5233560410
 C         -4.6997432801        2.1148829681       -2.1195436316
 H         -4.0418962699        1.5382873980       -2.7747966913
 H         -4.9345566603        3.0559357679       -2.6218160920
 C         -3.9278779803        2.4277262088       -0.8308452716
 H         -2.9356175004        2.7944195989       -1.1047537216
 H         -4.4428395305        3.2015017289       -0.2620256320
 H         -7.2213753500        0.2564800285        0.3201212689
 H         -7.9612146504        1.7356061386        0.9341883982
 H         -5.6504266106        2.6535995492        1.3627632481
 H         -6.1270569304        1.2579697095        2.3454975486
 O         -4.5111580400       -0.3227848204        1.6580980994
 C         -3.4531977598       -1.1899435303        1.4393143598
 O         -3.4704881397       -2.2142857000        2.1524531202
 O         -1.7107089599        0.7003068391       -1.1144519607
 C         -1.3426242996       -1.8048152603        0.2605656403
 C         -0.0285115997       -1.1069775999        0.5152804502
 C          0.1386111400       -0.4064434394        1.7072381999
 C          1.3265686598        0.2397899009        1.9873054798
 C          2.3775635899        0.2017150208        1.0871174699
 C          2.2285291902       -0.5063148097       -0.0963320198
 C          1.0330024504       -1.1593928200       -0.3733579197
 H          0.9348618206       -1.7043817104       -1.2993443495
 N          3.2875054403       -0.5467376998       -1.0166307097
 S          4.8364521503       -0.8776327793       -0.4680889894
 O          5.5322488906       -1.4219850196       -1.6137518091
 O          4.8132996204       -1.7003160988        0.7189177709
 C          5.5125383500        0.7253738010       -0.0892329199
 C          5.5005809199        1.6885356306       -1.0789521703
 C          6.0347615096        2.9370678508       -0.8038147407
 C          6.5715600094        3.1992092014        0.4479646093
 C          6.5787513695        2.2206369018        1.4300012496
 C          6.0449596398        0.9698004016        1.1613579801
 H          6.0247541698        0.1801946719        1.8957442804
 H          6.9965246693        2.4262915323        2.4024849396
 H          6.9867517792        4.1720361216        0.6591829489
 H          6.0304529695        3.7008892305       -1.5647065610
 H          5.0773406600        1.4451125502       -2.0392183602
 H          3.0798902405       -1.0548051902       -1.8638371395
 H          3.3050814798        0.7086661611        1.2969984398
 H          1.4364543996        0.7824612613        2.9140928096
 H         -0.6824648501       -0.3742567193        2.4110554798
 H         -1.4548904895       -2.5984983400        1.0139051306
 C         -1.4505367793       -2.4240721708       -1.1176141695
 C         -0.8920872690       -3.7897504508       -1.3796210789
 C         -2.3754460990       -3.5852884611       -1.3171789891
 H         -2.9436611189       -3.6411593916       -2.2335965592
 H         -2.9082221490       -3.9488531309       -0.4503907691
 H         -0.4444712688       -3.9907787311       -2.3416565488
 H         -0.4157408490       -4.3018876504       -0.5569849786
 H         -1.3980623893       -1.6864916711       -1.9105588898
