  62
        -98.94407347
 C         -1.9966549171       -1.2352820492       -0.0805260989
 C         -2.4096341160       -0.2085470610       -0.9635040544
 C         -3.8361499816        0.1456335022       -0.9092352825
 C         -4.6502296640       -0.5128468382       -0.0645947885
 C         -6.1090572272       -0.2181895421        0.1274475367
 C         -6.3251509028        0.8019431004        1.2539729630
 C         -5.4417098097        2.0444146700        1.1398178227
 H         -5.7034642476        2.7069157816        1.9677455177
 H         -4.3973278447        1.7550732596        1.2787597105
 C         -5.5832575345        2.8042619574       -0.1865072605
 H         -6.5102824191        2.5144610332       -0.6826581494
 H         -5.6511102499        3.8728897957        0.0280541232
 C         -4.4118499487        2.6183960736       -1.1529531567
 H         -3.4714664230        2.8175449428       -0.6321755257
 H         -4.5076076138        3.3614869558       -1.9492929571
 C         -4.3100495483        1.2416091454       -1.8216597941
 H         -5.2686990673        0.9805228098       -2.2745244975
 H         -3.5621298562        1.3140869585       -2.6167681404
 H         -7.3754562405        1.0989713257        1.2540619271
 H         -6.1094001904        0.3154236393        2.2079976404
 H         -6.5242118387        0.1604067306       -0.8044674474
 H         -6.6162910767       -1.1482450509        0.3895099318
 O         -4.2190855665       -1.5029959806        0.7575636045
 C         -2.8859276274       -1.8738871610        0.7861547230
 O         -2.6193148884       -2.7723252577        1.6090093302
 H          1.2088776355       -0.0331138639       -1.3870121518
 C          1.1277170204        0.2193529970       -0.3418295821
 C          0.2860730914       -0.5096601366        0.4824362795
 C          0.1897453138       -0.1469456827        1.8233071834
 C          0.9168839718        0.9162594659        2.3241960836
 C          1.7548331725        1.6443882934        1.4965596743
 C          1.8508422351        1.2946178106        0.1575687410
 N          2.7230818340        2.0209513539       -0.6833288269
 S          4.3466909640        1.8952001864       -0.2836161772
 O          4.6066381304        2.6838014677        0.8936154903
 O          5.0757729141        2.2655575919       -1.4753635815
 C          4.5648915392        0.1620917814        0.0775778971
 C          4.6986553611       -0.7168938669       -0.9788025368
 C          4.7708371249       -2.0749338940       -0.7159693927
 C          4.6958367966       -2.5288270282        0.5920572795
 C          4.5607589995       -1.6335264757        1.6416148711
 C          4.4928961460       -0.2734643451        1.3851484056
 H          4.3897059000        0.4548390070        2.1724466556
 H          4.5022939868       -1.9896903423        2.6575510004
 H          4.7435125331       -3.5874548640        0.7940160087
 H          4.8786017972       -2.7751083484       -1.5287274915
 H          4.7572652368       -0.3241117490       -1.9813099638
 H          2.5944643817        1.8032498785       -1.6616451772
 H          2.3389876007        2.4711664164        1.8675705133
 H          0.8316945468        1.1824876981        3.3669095844
 H         -0.4696974764       -0.7129005888        2.4673539780
 C         -0.5406580527       -1.6677375698       -0.0189327522
 H         -0.4966426738       -2.4647782890        0.7354126288
 C         -0.0687346378       -2.2252842004       -1.3454543510
 C          1.2154102838       -2.9962458701       -1.4012837710
 C         -0.0938772644       -3.7061511173       -1.5672617601
 H         -0.3613683587       -4.0750775834       -2.5461509571
 H         -0.4488418933       -4.3256807968       -0.7567727444
 H          1.8490669052       -2.8804497848       -2.2672555340
 H          1.7552440126       -3.1294038942       -0.4760349303
 H         -0.3217899975       -1.5929777241       -2.1879193780
 O         -1.6366165903        0.3822855792       -1.7624341865
