  62
        -98.94045393
 C         -2.4773810394       -1.2034148596        0.0102162600
 C         -2.4498827587        0.0099197563       -0.7181192950
 C         -3.7587953520        0.6263149514       -0.9808592262
 C         -4.8761049353        0.0122440494       -0.5502235271
 C         -6.2662325378        0.5584044988       -0.6975299832
 C         -6.6611677740        1.4036723649        0.5217221380
 C         -5.6132093560        2.4437380177        0.9180165384
 H         -6.0116313598        2.9985472613        1.7701727693
 H         -4.7121604367        1.9303275506        1.2615716324
 C         -5.2382192830        3.4253791996       -0.2009436720
 H         -6.0041008778        3.4128341646       -0.9771729756
 H         -5.2122559963        4.4354626613        0.2131680314
 C         -3.8700873612        3.1702292648       -0.8365238453
 H         -3.1098131029        3.0890279656       -0.0551573398
 H         -3.6136026996        4.0363791559       -1.4524878699
 C         -3.7713110618        1.9282088820       -1.7313989140
 H         -4.5750034273        1.9410821156       -2.4705138810
 H         -2.8152287584        1.9761574322       -2.2614241793
 H         -7.6071572041        1.9025168029        0.3039379797
 H         -6.8168706109        0.7342379097        1.3707813473
 H         -6.3205248961        1.1593232518       -1.6030545308
 H         -6.9578165320       -0.2809473260       -0.7862771511
 O         -4.8621082763       -1.1664420515        0.1235274494
 C         -3.6674783596       -1.7960795449        0.4313345852
 O         -3.7945178021       -2.8570334848        1.0753878762
 H          1.5049529240       -1.3828166796       -0.0753176326
 C          1.0840050916       -0.8300406512        0.7468464725
 C         -0.2512689663       -0.9771721343        1.0872847910
 C         -0.7490374798       -0.2500134418        2.1658993002
 C          0.0626691437        0.6218920461        2.8642186339
 C          1.3881755206        0.7873283953        2.5027988553
 C          1.9013548909        0.0516357165        1.4415314505
 N          3.2604272493        0.1633212047        1.0966195699
 S          3.7376132318        0.0886785540       -0.5211136838
 O          3.0418561025        1.0858954488       -1.3033253172
 O          3.6396692522       -1.2736360387       -0.9793842153
 C          5.4555231838        0.5364764119       -0.3448194680
 C          6.3579273455       -0.4379270443        0.0374071411
 C          7.6890514350       -0.0904628091        0.2035941745
 C          8.0939823004        1.2182252885       -0.0137486265
 C          7.1776283020        2.1848557386       -0.3996450488
 C          5.8444465093        1.8440157009       -0.5662527610
 H          5.0989243134        2.5594610225       -0.8747497118
 H          7.4957897061        3.2004562063       -0.5718425748
 H          9.1307863401        1.4859500601        0.1153218019
 H          8.4049588775       -0.8399029253        0.5002847557
 H          5.9986615426       -1.4428215139        0.1854563610
 H          3.7054306297        0.9487747876        1.5530076869
 H          2.0199899386        1.4775737381        3.0411855284
 H         -0.3408271021        1.1853560404        3.6923679699
 H         -1.7882563950       -0.3725297104        2.4416364635
 C         -1.1776754375       -1.9110451217        0.3467582062
 H         -1.4454111244       -2.7365397322        1.0234135505
 C         -0.5636531302       -2.4942651805       -0.9089432689
 C          0.2837366938       -3.7274104659       -0.8326798328
 C         -1.0846911165       -3.7946205969       -1.4395594892
 H         -1.1720458223       -3.9171726526       -2.5087044885
 H         -1.8714450685       -4.2769143603       -0.8775001920
 H          0.4281279974       -4.1730991010        0.1400106734
 H          1.1440604514       -3.7991810203       -1.4814277993
 H         -0.2900804987       -1.7325553512       -1.6317657177
 O         -1.3893385170        0.5539611370       -1.1255459725
