  62
        -98.94367366
 C         -1.1352382743       -1.4776077687        0.2240991934
 C         -1.5927236539       -0.4356983233        1.0710959320
 C         -2.4693689356        0.5722976494        0.4615410041
 C         -2.7552319816        0.4805465014       -0.8496824129
 C         -3.6473879687        1.4250296836       -1.6011174902
 C         -5.1026711817        0.9372110796       -1.6035839955
 C         -5.6248152067        0.5535827272       -0.2189304532
 H         -6.6693400558        0.2570110633       -0.3359932855
 H         -5.0788909049       -0.3237599455        0.1354859743
 C         -5.5233710706        1.6711506377        0.8284618176
 H         -6.4629936715        1.7167132978        1.3829682024
 H         -5.3934245412        2.6331201731        0.3314732144
 C         -4.4080127708        1.4766166178        1.8570688617
 H         -4.5658402579        2.1934481434        2.6671094380
 H         -4.4792735217        0.4745984045        2.2873225443
 C         -2.9768810404        1.6790696625        1.3428411827
 H         -2.8986970420        2.6422749548        0.8339599096
 H         -2.3149386790        1.6951151917        2.2131497889
 H         -5.1724553542        0.0611336696       -2.2526679364
 H         -5.7294926164        1.7241340503       -2.0271266501
 H         -3.5836312570        2.4126089776       -1.1477011500
 H         -3.2877684451        1.4863925703       -2.6300940609
 O         -2.2930465178       -0.5216356314       -1.6355616167
 C         -1.4671269643       -1.5227980578       -1.1320584824
 O         -1.1348330423       -2.3650518788       -1.9848383445
 H          1.0745914593       -1.1430830678       -1.1355869240
 C          1.7033202451       -1.2817195683       -0.2690174121
 C          1.2210784853       -1.9586106062        0.8420954291
 C          2.0601459666       -2.1203721950        1.9388906122
 C          3.3518626301       -1.6251816303        1.9172834148
 C          3.8187445604       -0.9276563025        0.8175685291
 C          2.9825779995       -0.7463755825       -0.2772436619
 N          3.3919254560        0.0103604570       -1.3953767914
 S          2.4493344682        1.3559244253       -1.7422065843
 O          1.1778970578        0.9551885137       -2.2854775591
 O          3.2809346921        2.1783400631       -2.5945243095
 C          2.2395963354        2.1283761990       -0.1495389031
 C          1.1481963296        1.7843689759        0.6211183825
 C          1.0556335663        2.2768083495        1.9128421735
 C          2.0475514571        3.1103520646        2.4054541120
 C          3.1311878331        3.4605291300        1.6133072733
 C          3.2370360003        2.9571742463        0.3270070871
 H          4.0639614203        3.1995109130       -0.3209160064
 H          3.8973779238        4.1139190373        1.9983694739
 H          1.9733463167        3.4877921803        3.4130228298
 H          0.2165080920        1.9814661775        2.5230175969
 H          0.3896189490        1.1364502935        0.2097495076
 H          4.3650524292        0.2835067525       -1.3638271519
 H          4.8176342485       -0.5188894737        0.8067884498
 H          3.9948727518       -1.7645481044        2.7724591920
 H          1.6879834777       -2.6242951984        2.8184496416
 C         -0.1930371957       -2.4860277816        0.8582094668
 H         -0.5032943006       -2.5463692869        1.9142184798
 C         -0.2998045160       -3.8854472421        0.2716905836
 C          0.7196535761       -4.4579998930       -0.6618683344
 C          0.6152215638       -4.9790172691        0.7382269940
 H          0.2009949811       -5.9636675137        0.8929035338
 H          1.4033240382       -4.7156892236        1.4266152473
 H          1.5688274182       -3.8445027300       -0.9213157888
 H          0.3640025756       -5.0662600414       -1.4791949724
 H         -1.3311163045       -4.1633157152        0.0800013174
 O         -1.2754946249       -0.3529384669        2.2884576759
