  62
        -98.94225417
 C         -1.8861346406       -1.2880208269       -0.0478303061
 C         -3.0550058436       -1.1937634786        0.7531930555
 C         -4.2258346931       -0.5679847162        0.1310034789
 C         -4.1541614144       -0.1442031998       -1.1433862640
 C         -5.2685211769        0.4869655213       -1.9329692687
 C         -5.4235446748        1.9958135654       -1.6984435334
 C         -6.0099836718        2.3863347894       -0.3411831044
 H         -6.2660078459        3.4463276425       -0.3961374853
 H         -6.9367013906        1.8361497805       -0.1751540460
 C         -5.0604131363        2.1695464083        0.8455314232
 H         -5.0737330834        3.0524444470        1.4886694670
 H         -4.0370273158        2.0586115409        0.4789980713
 C         -5.4049525051        0.9654899659        1.7224064393
 H         -4.6474710392        0.8857122836        2.5063900936
 H         -6.3719604367        1.1277792154        2.2036530861
 C         -5.4515857663       -0.3710802865        0.9704758838
 H         -5.4833380380       -1.1778135114        1.7068247180
 H         -6.3483198932       -0.4244742518        0.3533476315
 H         -4.4480579703        2.4716599316       -1.8239526858
 H         -6.0834477452        2.3807201443       -2.4794137042
 H         -6.2088459156       -0.0159503049       -1.7053591120
 H         -5.0333666510        0.3249103879       -2.9871881294
 O         -3.0244639674       -0.2663135425       -1.8861318187
 C         -1.8584397813       -0.8128813999       -1.3595344942
 O         -0.9061216264       -0.8069441325       -2.1623397994
 O         -3.1171168498       -1.6259864757        1.9348759800
 C         -0.6757027762       -1.9399382923        0.5980186823
 C          0.2701015790       -0.9178130514        1.1736417362
 C          0.7218242651       -1.0215643170        2.4839291981
 C          1.6063364367       -0.0905828129        3.0014315119
 C          2.0622230055        0.9577213532        2.2225810753
 C          1.6181724943        1.0688429207        0.9109264641
 C          0.7277786681        0.1376484682        0.3961480051
 H          0.3870441088        0.2294022159       -0.6247881838
 N          2.0847208011        2.1250609068        0.1010621229
 S          3.7442872404        2.2276901056       -0.1149504245
 O          4.3498966480        2.6778848594        1.1128728000
 O          3.9323498514        3.0763564628       -1.2689542077
 C          4.2581175423        0.5593643155       -0.4751921670
 C          4.1726142101        0.1139597666       -1.7793614991
 C          4.5033833451       -1.2013974633       -2.0617791109
 C          4.8967461334       -2.0486883352       -1.0371785123
 C          4.9745358467       -1.5868262070        0.2674663234
 C          4.6543162504       -0.2697147371        0.5553416616
 H          4.7108889124        0.1291631391        1.5544781715
 H          5.2799021426       -2.2485003667        1.0617015387
 H          5.1420271226       -3.0752486551       -1.2576242544
 H          4.4436043566       -1.5619368140       -3.0760301055
 H          3.8607288335        0.8037972172       -2.5474084919
 H          1.6257517611        2.1575113228       -0.7986110077
 H          2.7556020617        1.6890477520        2.6054930521
 H          1.9436596951       -0.1807391002        4.0226678911
 H          0.3644317237       -1.8319931905        3.1020370699
 H         -1.0924970272       -2.5121577672        1.4418305640
 C          0.0237964103       -2.9371156166       -0.3169257140
 C          1.3513035848       -2.6924963177       -0.9621177024
 C          1.2394283918       -3.6749258837        0.1621002641
 H          1.3241799189       -4.7283652318       -0.0559762106
 H          1.6496612779       -3.3834871831        1.1170459592
 H          1.4908598854       -3.0596086756       -1.9670895834
 H          1.8511486068       -1.7559320542       -0.7729041352
 H         -0.6920778165       -3.5069062056       -0.9015928928
