  62
        -98.94080214
 C          1.1154589332        1.4474360729        0.1118316594
 C          1.5384552438        0.4220048559        0.9892649693
 C          2.4821193990       -0.5763248809        0.4539061753
 C          2.8316215046       -0.5005391076       -0.8438162552
 C          3.8249452644       -1.3464752901       -1.5954049012
 C          5.2792874546       -0.9772819824       -1.2616272637
 C          5.5672482002       -0.7858927445        0.2251876292
 H          6.5996850350       -0.4392163309        0.3204030849
 H          4.9242701612        0.0045118683        0.6165096261
 C          5.4144648098       -2.0379165457        1.0862670898
 H          5.7488980419       -1.7787283921        2.0940864447
 H          6.0801355589       -2.8166659157        0.7074288643
 C          3.9998165607       -2.6136154475        1.1899626891
 H          3.9983910480       -3.3217051225        2.0236111534
 H          3.7434830402       -3.1845788530        0.3018447910
 C          2.9141599110       -1.5849874405        1.4900584992
 H          1.9990056502       -2.1147913910        1.7804861480
 H          3.2047690536       -1.0066985785        2.3744539571
 H          5.9326253142       -1.7531451649       -1.6644324050
 H          5.5165734406       -0.0396012879       -1.7701680426
 H          3.6492214599       -2.4014514076       -1.4089471904
 H          3.6552125224       -1.1623283724       -2.6584782354
 O          2.3190759854        0.4474769102       -1.6778244075
 C          1.4563454638        1.4356570177       -1.2404052911
 O          1.0788681947        2.2137651419       -2.1359883137
 O          1.1584801403        0.3488885688        2.1901141621
 C          0.2032741910        2.5312835825        0.6643356780
 C         -1.2035412748        2.2348638014        0.2104599801
 C         -1.8230827085        2.8859854677       -0.8479400017
 C         -3.0935820202        2.5110152980       -1.2524904942
 C         -3.7718481368        1.4898678366       -0.6110834559
 C         -3.1581020387        0.8335298831        0.4480890771
 C         -1.8858481132        1.2064028069        0.8507122425
 H         -1.4005082875        0.6851375995        1.6659905059
 N         -3.8386227954       -0.2250521708        1.0958838478
 S         -3.9881721256       -1.6300926388        0.1988778037
 O         -4.7294062355       -1.3358119673       -0.9998577976
 O         -4.5670988172       -2.6084935315        1.0902153643
 C         -2.3174934131       -2.1012447792       -0.2138356150
 C         -1.6904423445       -3.0725332915        0.5403579270
 C         -0.3816644580       -3.4130160163        0.2405677939
 C          0.2774761789       -2.7688930638       -0.7945753336
 C         -0.3604714765       -1.7845121755       -1.5328859256
 C         -1.6718786730       -1.4449379036       -1.2430964700
 H         -2.1976684338       -0.6895736975       -1.8049229570
 H          0.1592940392       -1.2732210025       -2.3283629043
 H          1.2955170499       -3.0329019620       -1.0300810833
 H          0.1205238041       -4.1766533558        0.8127831375
 H         -2.2427099525       -3.5501703583        1.3338413592
 H         -3.4338502627       -0.4573495534        1.9930045203
 H         -4.7534288914        1.1759991226       -0.9265823438
 H         -3.5621079194        3.0219589446       -2.0800525463
 H         -1.3021216454        3.6725484136       -1.3682832635
 H          0.2342112888        2.4050744470        1.7554942949
 C          0.6817725828        3.9252857403        0.3229577437
 C          0.1193641853        5.0935278539        1.0744889030
 C          1.5366488596        4.6658034253        1.3055978234
 H          2.3327962855        5.2895053848        0.9276710148
 H          1.7753395304        4.1710430491        2.2358513275
 H         -0.0597490954        6.0135450775        0.5396890522
 H         -0.6056552073        4.8861557384        1.8470948102
 H          0.9084202045        4.0589451933       -0.7271362294
