  62
        -98.94071368
 C          2.0799254917        1.3426121784        0.3899150839
 C          2.5241703977        0.6360622643       -0.7555010488
 C          3.7171427656       -0.2057534550       -0.5658462320
 C          4.2991707734       -0.2722496234        0.6444023596
 C          5.4818103764       -1.1313218256        0.9840983939
 C          5.0377792862       -2.5086964055        1.4963821981
 C          3.9931541683       -3.1897000428        0.6117379445
 H          3.7765492521       -4.1642495969        1.0549615644
 H          3.0663363109       -2.6116252849        0.6416177384
 C          4.4237013448       -3.3772546531       -0.8498076040
 H          4.1599859931       -4.3890842898       -1.1648733141
 H          5.5073791932       -3.2848461986       -0.9312285670
 C          3.7578252514       -2.4162718199       -1.8367049001
 H          3.9623567094       -2.7744076390       -2.8492375224
 H          2.6736008375       -2.4379888176       -1.6967607121
 C          4.2241349717       -0.9566925904       -1.7646843898
 H          5.3141316340       -0.9153753339       -1.8147572622
 H          3.8186457587       -0.4374508251       -2.6380404778
 H          5.9189021659       -3.1475834157        1.5780592600
 H          4.6129905123       -2.3866115657        2.4955654929
 H          6.0577232270       -0.6318190865        1.7650212143
 H          6.1074120240       -1.2448905376        0.1010057369
 O          3.8326026942        0.4038532146        1.7254131452
 C          2.7046906585        1.2035174851        1.6315863119
 O          2.3567277250        1.7238018321        2.7108698835
 O          1.9664357860        0.6938474377       -1.8805862540
 C          0.8446976810        2.2273691066        0.3504612149
 C         -0.2716838774        1.5062205715       -0.3652286662
 C         -0.9093426987        1.9933295390       -1.4976129178
 C         -1.9099102350        1.2568240976       -2.1083936539
 C         -2.3010446126        0.0309172503       -1.6036457682
 C         -1.6818920156       -0.4573738564       -0.4593388884
 C         -0.6853150882        0.2850325297        0.1547771721
 H         -0.1962949228       -0.1006316261        1.0417820618
 N         -2.0735176775       -1.6967992138        0.0698218977
 S         -3.6926001397       -2.1083128196        0.0751780239
 O         -3.8388498356       -3.0330432787        1.1777271173
 O         -4.0729796013       -2.6123918305       -1.2211433747
 C         -4.5753602960       -0.5945259897        0.4124269218
 C         -4.2850222404        0.0868710878        1.5778107654
 C         -4.9507048473        1.2721642209        1.8444977014
 C         -5.8915856729        1.7530372511        0.9464408912
 C         -6.1762453492        1.0542884728       -0.2162317278
 C         -5.5119311306       -0.1308571528       -0.4888772313
 H         -5.7004259659       -0.7050911125       -1.3814344113
 H         -6.9097243674        1.4290203143       -0.9117940445
 H         -6.4059145328        2.6774942525        1.1563297116
 H         -4.7311234975        1.8164031067        2.7490767694
 H         -3.5522954566       -0.3153222218        2.2592282288
 H         -1.6182254641       -1.9466973482        0.9342962912
 H         -3.0573883024       -0.5651183410       -2.0878437885
 H         -2.3858955648        1.6390114503       -2.9984119588
 H         -0.6015530676        2.9341263568       -1.9224503622
 H          0.5467771505        2.3409239616        1.4060902070
 C          1.0965393624        3.6319265005       -0.1770141428
 C          2.4423245264        4.2774836209       -0.0386644770
 C          1.9286593245        3.8990013371       -1.3936960320
 H          1.6194564731        4.6901625248       -2.0612234557
 H          2.3676209331        3.0516684730       -1.8953385486
 H          2.4844288671        5.3237070868        0.2248330198
 H          3.2394023615        3.6878713235        0.3911585062
 H          0.2389985068        4.2794942137       -0.0224646498
