  62
        -98.94031024
 C         -2.1357538396       -1.2561559803       -0.0806005107
 C         -2.4177167995       -0.0448234000       -0.7608984703
 C         -3.8168692695        0.4123466301       -0.7020961500
 C         -4.7285213895       -0.3152708501       -0.0338353903
 C         -6.1698633395        0.0623873999        0.1440413600
 C         -6.3750834794        0.8777009695        1.4283773603
 C         -5.3964794993        2.0418416093        1.5844757007
 H         -5.6571673492        2.5643233190        2.5074659709
 H         -4.3866867593        1.6455337892        1.7145318405
 C         -5.4013243993        3.0367073398        0.4154598610
 H         -6.3156701893        2.9194776000       -0.1674813290
 H         -5.4025415292        4.0514027596        0.8191794414
 C         -4.1908999993        2.9292731400       -0.5140793191
 H         -3.2708129393        2.9530355398        0.0758594909
 H         -4.1833667293        3.8077652903       -1.1650196087
 C         -4.1513109095        1.6907224504       -1.4179889995
 H         -5.0974831895        1.5964453306       -1.9550864495
 H         -3.3530701495        1.8423651906       -2.1507552595
 H         -7.3986108593        1.2568224695        1.4366466505
 H         -6.2527131494        0.2108409791        2.2850080000
 H         -6.4994046395        0.6361815203       -0.7199586098
 H         -6.7602758495       -0.8533088301        0.2075460396
 O         -4.4212954796       -1.4710157304        0.6080167193
 C         -3.1240196196       -1.9549411705        0.6198262890
 O         -2.9781768196       -3.0025562307        1.2804637987
 H          1.0946772804       -0.5154335499       -1.5792201406
 C          1.1191453705       -0.1967087703       -0.5489862905
 C          0.2509634805       -0.7677353606        0.3677309793
 C          0.2796529006       -0.3172201311        1.6840545095
 C          1.1479944507        0.6868783387        2.0696410298
 C          2.0032813406        1.2654555490        1.1488527300
 C          1.9794460306        0.8249025295       -0.1677826002
 N          2.8381021505        1.4160103698       -1.1088786600
 S          4.4392810906        1.6442141995       -0.6933705500
 O          4.5674850807        2.8035793592        0.1540748104
 O          5.1548248005        1.6967621600       -1.9487949000
 C          4.8839315705        0.1759927792        0.2178614494
 C          5.1911831006        0.2588754987        1.5602503994
 C          5.4887247406       -0.9043529016        2.2525760390
 C          5.4695575405       -2.1239319014        1.5945281385
 C          5.1615795004       -2.1906210508        0.2440173885
 C          4.8639208004       -1.0312304606       -0.4527055510
 H          4.6284654704       -1.0452606202       -1.5047664710
 H          5.1497924103       -3.1406866107       -0.2657195418
 H          5.6971950804       -3.0287698016        2.1356534882
 H          5.7310166606       -0.8556386020        3.3019651190
 H          5.1951240207        1.2270618285        2.0336057698
 H          2.7374759505        1.0531331002       -2.0446593101
 H          2.6734453007        2.0631998889        1.4252639803
 H          1.1557875907        1.0276108383        3.0939319399
 H         -0.3985794394       -0.7596372613        2.4012625994
 C         -0.7345422296       -1.8434785104       -0.0137745210
 H         -0.7756356296       -2.5704760207        0.8130605587
 C         -0.3166061297       -2.6249185999       -1.2507094813
 C         -1.3110460798       -3.4713441396       -1.9865983316
 C         -0.7372173798       -2.2511765794       -2.6389540112
 H         -0.0269162798       -2.3888371991       -3.4417203513
 H         -1.3684430297       -1.3855404793       -2.7611044708
 H         -2.3373922698       -3.4374289297       -1.6506432015
 H         -0.9999741299       -4.4423149495       -2.3413953820
 H          0.6807720603       -3.0404009600       -1.1412595816
 O         -1.5661293295        0.6293580502       -1.3948313901
