  62
        -98.94524170
 C         -2.4535111234       -1.2189711289       -0.0808198211
 C         -3.4971665130       -0.7753870968        0.7716509766
 C         -4.3415386339        0.3039354372        0.2508314849
 C         -4.1003391654        0.8065515722       -0.9735422778
 C         -4.8820388808        1.8983700225       -1.6522328082
 C         -4.4463970654        3.3154260089       -1.2546573705
 C         -4.8503048374        3.7484371599        0.1552985759
 H         -4.6778087697        4.8245399406        0.2206638793
 H         -5.9189008320        3.5807239139        0.2932858956
 C         -4.0683217830        3.0547269114        1.2795620468
 H         -3.7487389004        3.7986347720        2.0128335695
 H         -3.1615254548        2.6036546306        0.8687197169
 C         -4.8574385891        1.9847997784        2.0344686110
 H         -4.1961721167        1.5347292298        2.7791001505
 H         -5.6926530029        2.4503641653        2.5621897467
 C         -5.4065823531        0.8600494091        1.1470982384
 H         -5.7524223195        0.0505608301        1.7943650259
 H         -6.2486893975        1.2221622061        0.5580265856
 H         -4.8994746625        4.0075853699       -1.9682265501
 H         -3.3615011647        3.3905107192       -1.3627807296
 H         -4.7187909163        1.7766367014       -2.7252307780
 H         -5.9450066796        1.7714536289       -1.4452765478
 O         -3.0957394591        0.3484352927       -1.7657849045
 C         -2.2346016143       -0.6520879433       -1.3363481866
 O         -1.3497525906       -0.9409684100       -2.1663867981
 H          0.6812766688       -2.0477903018       -1.1571494147
 C          0.8196260820       -1.6029081838       -0.1843516886
 C         -0.1979509157       -1.6699646440        0.7548372670
 C         -0.0079049218       -1.0534058108        1.9884937866
 C          1.1724124249       -0.3927060255        2.2728751798
 C          2.1826407219       -0.3208730578        1.3292312872
 C          1.9946568968       -0.9160618049        0.0896536418
 N          3.0065877862       -0.8242099228       -0.8841825310
 S          3.6080605311        0.7092739798       -1.2207152851
 O          2.6370133683        1.7412412250       -0.9374357232
 O          4.0979889602        0.6379661392       -2.5803029110
 C          4.9999171024        0.8601761304       -0.1182059792
 C          5.9834071430       -0.1079153357       -0.1769452503
 C          7.0756678187       -0.0046328777        0.6694058918
 C          7.1673902697        1.0603615338        1.5533006937
 C          6.1738437469        2.0262735439        1.5974878050
 C          5.0780721930        1.9283074206        0.7538126397
 H          4.2785536518        2.6522567074        0.7563115352
 H          6.2466760855        2.8538858903        2.2847109689
 H          8.0181691975        1.1382932518        2.2116289114
 H          7.8504952192       -0.7535607528        0.6375449566
 H          5.8751735998       -0.9161794233       -0.8806138631
 H          2.7675716468       -1.2966428358       -1.7449706693
 H          3.1007251926        0.2036021569        1.5379317185
 H          1.3071702731        0.0761135342        3.2357846208
 H         -0.8070455864       -1.0857145644        2.7158022634
 C         -1.5291806007       -2.3072561628        0.4424599926
 H         -1.9794242464       -2.6369603072        1.3883145389
 C         -1.4374345043       -3.4949448549       -0.4917499255
 C         -0.8478082844       -4.7764129927        0.0145213159
 C         -2.3189873409       -4.6826895581       -0.2534550634
 H         -2.7229568669       -5.2024322489       -1.1093102532
 H         -2.9915932283       -4.6444996549        0.5907611197
 H         -0.5204137957       -4.7995639033        1.0428297803
 H         -0.2391396535       -5.3645075526       -0.6550814644
 H         -1.2490866636       -3.2216197397       -1.5225952922
 O         -3.7144940914       -1.2641037054        1.9116023519
