  62
        -98.94747689
 C         -1.1010634907       -0.8636870302        0.7115649911
 C         -1.8525001408       -0.8177149112       -0.4866431189
 C         -2.5421362411        0.4503670885       -0.7620595297
 C         -2.3613277313        1.4936853091        0.0669939196
 C         -3.0289393416        2.8301312888       -0.0778670012
 C         -4.3602822116        2.8757494390        0.6856848689
 C         -5.2751415413        1.6836947086        0.4054587197
 H         -4.8045912011        0.7758777490        0.7895335403
 H         -6.1934006913        1.8377055188        0.9761294397
 C         -5.6216297714        1.4845901376       -1.0765297001
 H         -6.6917193614        1.2847434773       -1.1629450799
 H         -5.4168494017        2.4007812173       -1.6316048307
 C         -4.8949553312        0.3162451473       -1.7452122794
 H         -5.3656022512        0.1325686266       -2.7147512792
 H         -5.0218286409       -0.5869618323       -1.1431601888
 C         -3.3952436713        0.5192003675       -1.9969821397
 H         -3.2313355315        1.4614289072       -2.5249363403
 H         -3.0501382511       -0.2951290629       -2.6413939891
 H         -4.8754387418        3.8018137587        0.4240608783
 H         -4.1440465515        2.8971414198        1.7562157088
 H         -2.3612008418        3.5942065393        0.3244390682
 H         -3.1940125918        3.0321886881       -1.1346368413
 O         -1.5748843212        1.4339342700        1.1717834396
 C         -0.9311472609        0.2567544204        1.5230327503
 O         -0.2452788008        0.3370413212        2.5622839802
 O         -1.9504022607       -1.7868213217       -1.2851170683
 C         -0.3291256604       -2.1210883198        1.0772780318
 C          0.6908463196       -2.3736825103       -0.0070560581
 C          0.8370597398       -3.5780051507       -0.6804757573
 C          1.7547107097       -3.6900308712       -1.7117763773
 C          2.5275488595       -2.6107994212       -2.0981304381
 C          2.4007092192       -1.4049525308       -1.4155954289
 C          1.5092380093       -1.3080918803       -0.3618699989
 H          1.4088703891       -0.3724630700        0.1680462105
 N          3.1781124090       -0.2915950309       -1.7605997297
 S          2.6394801786        1.2620566292       -1.4632766107
 O          1.2135054786        1.4002023788       -1.6520352506
 O          3.4699975584        2.0879495188       -2.3164855413
 C          3.0928149287        1.5537682304        0.2325469291
 C          4.3618383188        1.1927206510        0.6414989992
 C          4.7324315489        1.4260728520        1.9554954890
 C          3.8339223388        2.0144579023        2.8331776587
 C          2.5666684087        2.3776383218        2.4056156886
 C          2.1912825786        2.1479530908        1.0915735988
 H          1.2065539586        2.3999291603        0.7280728587
 H          1.8595679287        2.8223079920        3.0871680084
 H          4.1200584389        2.1900324731        3.8582439886
 H          5.7170749190        1.1452063324        2.2931797891
 H          5.0299912989        0.7359880807       -0.0693440305
 H          3.7008369889       -0.3703929413       -2.6199824697
 H          3.2194821894       -2.6939648716       -2.9221387481
 H          1.8550566799       -4.6282705415       -2.2361611267
 H          0.2224704400       -4.4217322106       -0.4133044067
 H          0.2088577596       -1.8884435390        2.0077665616
 C         -1.2640872101       -3.2841721998        1.3263583327
 C         -0.8386647098       -4.4083786091        2.2211737134
 C         -1.8836676799       -3.4383176791        2.6817103528
 H         -2.9083095699       -3.7726428593        2.7450644831
 H         -1.6141516401       -2.7127744985        3.4355529123
 H         -1.1478742596       -5.4119808894        1.9713873041
 H          0.1416370903       -4.3462129186        2.6686552533
 H         -1.8795774601       -3.5166814205        0.4652489729
