  62
        -98.93619023
 C         -2.5997838737       -0.0180386243        0.5799204402
 C         -2.2314230454        0.5632453869       -0.6596706047
 C         -1.7247695632        1.9429619858       -0.6047555934
 C         -1.5900185364        2.5495183465        0.5870127180
 C         -0.9308747271        3.8793659161        0.8167114270
 C          0.6009792490        3.7026680852        0.7554330587
 C          1.2735658213        4.4389725614       -0.4031498906
 H          1.3054036218        5.5069955372       -0.1755650798
 H          2.3031432443        4.0793667181       -0.4580464843
 C          0.6106869145        4.2676829812       -1.7735314925
 H         -0.2461193399        4.9391875561       -1.8520698175
 H          1.3350451299        4.5977943351       -2.5212685961
 C          0.1526404111        2.8464179289       -2.1260446399
 H          0.7181714444        2.1009728639       -1.5660023073
 H          0.3566580023        2.6755655525       -3.1854188822
 C         -1.3508895130        2.5886839988       -1.9097459246
 H         -1.9080493732        3.5223668675       -2.0297957945
 H         -1.6974110876        1.8913493611       -2.6780499436
 H          1.0454954952        4.0508069163        1.6897692139
 H          0.8218037722        2.6342940201        0.6829769540
 H         -1.2660996052        4.5945037315        0.0686268719
 H         -1.2353444240        4.2321185958        1.8025075868
 O         -1.9586146889        1.9648387849        1.7576450945
 C         -2.4400504325        0.6666972250        1.7851638855
 O         -2.6901879415        0.2398548428        2.9325253804
 H         -0.3844917042       -1.3532396778        1.0795142628
 C         -0.6083318807       -2.0372160806        0.2718467287
 C         -1.9340157704       -2.2751946704       -0.0717831497
 C         -2.2045724417       -3.1653010139       -1.1006564277
 C         -1.1644452760       -3.7698897883       -1.7870624940
 C          0.1530099865       -3.4853395492       -1.4802169713
 C          0.4325738200       -2.6052167191       -0.4393934608
 N          1.7579087685       -2.2907526435       -0.0872408362
 S          2.0677755605       -0.7594838845        0.5552169585
 O          1.7886668181       -0.7908617759        1.9708064776
 O          1.3991749915        0.2684653987       -0.2078537674
 C          3.8304203990       -0.6617030984        0.3037947984
 C          4.3349849348        0.1351387452       -0.7058297831
 C          5.7068018544        0.1816197764       -0.9010956062
 C          6.5450271923       -0.5687802861       -0.0906424810
 C          6.0236426576       -1.3645864712        0.9190816768
 C          4.6537322062       -1.4131551833        1.1214980159
 H          4.2027698362       -2.0069910077        1.8993672844
 H          6.6785029404       -1.9449856973        1.5486723266
 H          7.6117846104       -0.5313285206       -0.2449279338
 H          6.1143354446        0.8019425042       -1.6829287682
 H          3.6442266038        0.7030601374       -1.3085240905
 H          2.4228616154       -2.5328293331       -0.8092863390
 H          0.9593881094       -3.9315617650       -2.0420724327
 H         -1.3851561384       -4.4531014369       -2.5932527844
 H         -3.2249166280       -3.3585847406       -1.3886231202
 C         -2.9778790080       -1.4888854293        0.6842127062
 H         -2.8679592215       -1.7292234700        1.7556754922
 C         -4.4104251020       -1.8314495310        0.3113191972
 C         -5.5009060096       -0.8115925951        0.4467019948
 C         -5.0840840745       -1.2875044358       -0.9108264797
 H         -5.7576907040       -1.9366125181       -1.4512778776
 H         -4.5134072825       -0.6239651880       -1.5398436594
 H         -6.4560774234       -1.1295356002        0.8370885560
 H         -5.2128367334        0.1846523631        0.7509668090
 H         -4.6673015189       -2.8471097808        0.5973645088
 O         -2.3118177790       -0.0325133500       -1.7652062920
