  62
        -98.93875683
 C         -1.8635636972       -0.6665674023        0.8801837175
 C         -2.1989055391        0.7104319326        0.8037439367
 C         -3.6233032125        1.0325790605        0.6547105404
 C         -4.5198624759        0.0304912288        0.6189620249
 C         -5.9973421518        0.2061032126        0.4222634934
 C         -6.3711324263        0.1439043141       -1.0652990532
 C         -5.5061911407        1.0344647376       -1.9574478675
 H         -4.4810035037        0.6568401455       -1.9521954696
 H         -5.8803085062        0.9328859522       -2.9785615956
 C         -5.5011598039        2.5171721539       -1.5599372704
 H         -5.6195246535        3.1213762888       -2.4619089002
 H         -6.3534650538        2.7301637441       -0.9136690269
 C         -4.2160362478        2.9860920440       -0.8749696719
 H         -3.3518123153        2.6896016145       -1.4748363360
 H         -4.2301337078        4.0786366725       -0.8385146807
 C         -4.0021536496        2.4835336309        0.5583999698
 H         -3.1624600131        3.0403514034        0.9842568393
 H         -4.8914700179        2.6901533409        1.1574038172
 H         -6.2641056301       -0.8885528825       -1.4060083802
 H         -7.4196046690        0.4289987020       -1.1701155654
 H         -6.5126468313       -0.5974047905        0.9512695334
 H         -6.3034959251        1.1610203263        0.8451108390
 O         -4.1678226836       -1.2750839249        0.7127225113
 C         -2.8364852693       -1.6661368654        0.8262378040
 O         -2.6858782446       -2.8998393915        0.8697405555
 O         -1.3391886161        1.6302395505        0.8658948139
 C         -0.3882615288       -0.9896967147        1.0252716380
 C          0.2808366250       -1.1948370072       -0.3096064834
 C         -0.3045408043       -1.9557192872       -1.3159353323
 C          0.3504816557       -2.1449574210       -2.5194495451
 C          1.6067501000       -1.6047093794       -2.7322769530
 C          2.2013465924       -0.8446126677       -1.7324518903
 C          1.5256935967       -0.6282373009       -0.5397461026
 H          1.9805442713       -0.0143781458        0.2219631607
 N          3.4728928076       -0.2821963006       -1.9068654515
 S          4.5528233410       -0.2883126866       -0.6244139090
 O          5.8567072749       -0.2106967112       -1.2466319920
 O          4.3262573277       -1.4161063930        0.2476702819
 C          4.2282746975        1.2369001997        0.2326862447
 C          3.9594346940        1.2196983473        1.5868156972
 C          3.7199734558        2.4195578218        2.2378386270
 C          3.7553565264        3.6089824868        1.5268549914
 C          4.0306744350        3.6094672384        0.1676473911
 C          4.2709981784        2.4134437325       -0.4887876832
 H          4.4909277980        2.3732697453       -1.5425374192
 H          4.0558679602        4.5373289915       -0.3807812981
 H          3.5656134903        4.5406520231        2.0360838805
 H          3.5035601302        2.4205637882        3.2941945132
 H          3.9348655728        0.2717753256        2.1017788419
 H          3.9230142612       -0.5092095543       -2.7815499306
 H          2.1232526786       -1.7694706802       -3.6657717156
 H         -0.1152950915       -2.7348014962       -3.2947678704
 H         -1.2701504047       -2.4063324129       -1.1415003724
 H          0.0523279092       -0.0826532111        1.4701906301
 C         -0.1082500923       -2.1382423378        1.9846505660
 C          0.2957508787       -3.5082614762        1.5406383726
 C          1.2949753414       -2.6187284326        2.2143161733
 H          1.5966480229       -2.8558708660        3.2237625645
 H          2.0866378009       -2.2050935305        1.6055665631
 H         -0.1086002461       -4.3502709375        2.0812518159
 H          0.4057947216       -3.6882921099        0.4828147242
 H         -0.7510219834       -2.0927407454        2.8586440946
