  62
        -98.94478879
 C         -1.8535448010       -0.7402571619        0.4114163015
 C         -2.4632430576       -0.1510920952       -0.7228269439
 C         -3.5237030836        0.8246983284       -0.4380633522
 C         -3.8203998492        1.1408676611        0.8354667865
 C         -4.8556112539        2.1367351003        1.2835684422
 C         -6.2804207469        1.5700063295        1.3504857988
 C         -6.9452390883        1.3193072308       -0.0035946561
 H         -6.8787254378        2.2217110291       -0.6121985712
 H         -8.0037908111        1.1340901566        0.1893089850
 C         -6.3693145862        0.1275431197       -0.7810924917
 H         -7.1874005630       -0.4812401171       -1.1725206747
 H         -5.7948549037       -0.5068466322       -0.1022105846
 C         -5.4837008437        0.5122800666       -1.9663570492
 H         -6.0814671181        1.0352466282       -2.7161721683
 H         -5.1012028913       -0.4051366500       -2.4207399040
 C         -4.2832254647        1.3939860421       -1.5979626643
 H         -4.6151194406        2.4082466035       -1.3763894186
 H         -3.6044385184        1.4268525543       -2.4539208370
 H         -6.8903903329        2.2882495869        1.9032740866
 H         -6.2600998162        0.6405592836        1.9241861717
 H         -4.8384539764        3.0050974642        0.6241597815
 H         -4.5653073981        2.4567978161        2.2867636315
 O         -3.1720892987        0.5903144901        1.8970369292
 C         -2.1890011759       -0.3694718901        1.7128161799
 O         -1.6846225442       -0.7982367850        2.7716236330
 O         -2.1408243867       -0.4203104274       -1.9082454047
 C         -0.7657971266       -1.7838529319        0.2309100434
 C          0.4053183887       -1.1847715098       -0.5106378083
 C          1.0363166309       -1.8060580247       -1.5797428551
 C          2.1055553701       -1.1956986333       -2.2139231092
 C          2.5743845062        0.0343366051       -1.7926146201
 C          1.9637218259        0.6542813530       -0.7089828580
 C          0.8948714966        0.0409207810       -0.0747549204
 H          0.4187418826        0.5274391933        0.7681802548
 N          2.4443605493        1.8945163674       -0.2573529818
 S          4.1000297960        2.0989133959       -0.1319447321
 O          4.2816840759        3.0859716661        0.9094624752
 O          4.6458432431        2.4407737326       -1.4219390993
 C          4.7350914013        0.5144018729        0.3882474812
 C          5.6565100526       -0.1491235555       -0.3958863093
 C          6.1163224591       -1.3902027761        0.0147504478
 C          5.6457852366       -1.9449134706        1.1945095683
 C          4.7226320369       -1.2640220472        1.9736246538
 C          4.2614504679       -0.0219728980        1.5692713949
 H          3.5461601120        0.5324261530        2.1559832507
 H          4.3567509315       -1.6959356950        2.8913635256
 H          5.9998275610       -2.9131186590        1.5113386521
 H          6.8356616685       -1.9209011928       -0.5876530097
 H          5.9920841825        0.3174754422       -1.3076504123
 H          1.9647531238        2.2520254273        0.5551090274
 H          3.3926056336        0.5304928519       -2.2888119056
 H          2.5781548333       -1.6839857298       -3.0522230265
 H          0.6849345191       -2.7639830447       -1.9253485533
 H         -0.4257530593       -2.0448176106        1.2439016275
 C         -1.3324475834       -3.0242523670       -0.4273484486
 C         -0.7311436185       -4.3680261489       -0.1487176795
 C         -2.0726986009       -4.0153142341        0.4179864154
 H         -2.9506505723       -4.4905817035        0.0066960425
 H         -2.1453244907       -3.8081316255        1.4761100683
 H         -0.6896456451       -5.0908894391       -0.9493844534
 H          0.1083088610       -4.4095574406        0.5285422408
 H         -1.7179058791       -2.8287046282       -1.4212065234
