  62
        -98.93925709
 C         -1.7522929976       -1.3196454915       -0.0396381878
 C         -2.9102121967       -0.9068347149        0.6548821602
 C         -3.6609358084        0.2317980110        0.0882835119
 C         -3.2010225115        0.8144301207       -1.0348224851
 C         -3.7626676509        2.0079543132       -1.7607694374
 C         -3.4461533422        3.3353453305       -1.0523159171
 C         -3.6357800149        3.3178210063        0.4624562424
 H         -3.0106185323        2.5336403958        0.8943904486
 H         -3.2724618317        4.2719079440        0.8540420233
 C         -5.0757581905        3.1358039364        0.9366405674
 H         -5.0723981674        3.2276835043        2.0259467336
 H         -5.6887226147        3.9472048053        0.5379377510
 C         -5.7364827890        1.8041384705        0.5740244301
 H         -6.0497315194        1.7927852762       -0.4664617356
 H         -6.6481241797        1.7204824972        1.1729087583
 C         -4.8975612778        0.5687051652        0.8862738395
 H         -5.5427698648       -0.3156034521        0.8159787575
 H         -4.5788560483        0.6078537648        1.9344381236
 H         -4.0690483314        4.1175972838       -1.4892017110
 H         -2.4013599579        3.5861781749       -1.2529333933
 H         -3.2971645225        2.0225029661       -2.7486728979
 H         -4.8328563051        1.8895139109       -1.9013721006
 O         -2.0688321854        0.3892130633       -1.6651846662
 C         -1.3232292540       -0.6829821253       -1.2038761780
 O         -0.3272503904       -0.9545505384       -1.8968130235
 O         -3.3044797648       -1.4576363107        1.7198054654
 C         -0.9436451321       -2.4856536510        0.4951997331
 C          0.4903088430       -2.0852823896        0.7450848310
 C          1.5617127034       -2.9384300965        0.5104754775
 C          2.8591664273       -2.5260023761        0.7619456299
 C          3.1204904547       -1.2555345509        1.2400641394
 C          2.0569767331       -0.3925557966        1.4725436286
 C          0.7575009607       -0.8155449638        1.2404834991
 H         -0.0658205342       -0.1379680517        1.4316344551
 N          2.3114665686        0.9139839212        1.9233535783
 S          3.5483950986        1.7603089877        1.1740187349
 O          4.7978576270        1.4553801251        1.8271745301
 O          3.1408669459        3.1477459259        1.2258190495
 C          3.6015456129        1.1791142634       -0.5125176838
 C          4.7958314677        0.7253300076       -1.0350053786
 C          4.8219901418        0.2586169166       -2.3391710141
 C          3.6569616345        0.2433049971       -3.0903841496
 C          2.4653530854        0.7050540377       -2.5529324756
 C          2.4370024893        1.1832264306       -1.2536081857
 H          1.5181890745        1.5417505098       -0.8164638199
 H          1.5499218455        0.6690746578       -3.1210689404
 H          3.6729123933       -0.1337370627       -4.1007680240
 H          5.7468155725       -0.0996894888       -2.7618525849
 H          5.6734984339        0.7405294877       -0.4092506796
 H          1.4840100168        1.4858413633        2.0079900051
 H          4.1248322145       -0.9169503459        1.4373420066
 H          3.6797311173       -3.2016135230        0.5762308445
 H          1.3806008785       -3.9287852814        0.1267296378
 H         -1.4018226551       -2.7408237744        1.4630757423
 C         -1.0751369841       -3.6769873178       -0.4326233764
 C         -1.0649662851       -5.0732714067        0.1120427658
 C         -2.3408516035       -4.4784683996       -0.4008223539
 H         -2.7454476497       -4.8427241114       -1.3331889922
 H         -3.0941312985       -4.1841687853        0.3156254920
 H         -0.5944158585       -5.8507270158       -0.4708467485
 H         -0.9582448033       -5.1946682364        1.1794554718
 H         -0.6194568923       -3.4993362004       -1.4003320460
