  62
        -98.94093370
 C          1.7230260314        1.0853779344        0.0274498935
 C          2.1308081566       -0.1207500196       -0.5946696017
 C          3.5808806970       -0.2740165289       -0.8047150028
 C          4.4184823053        0.6987961373       -0.4050949794
 C          5.9145223529        0.6441062343       -0.5100237426
 C          6.5383985710        0.0479447156        0.7596579830
 C          5.8896336416       -1.2605855114        1.2111239519
 H          6.4301248243       -1.6030744027        2.0961928412
 H          4.8608271688       -1.0614733611        1.5198460393
 C          5.8919343474       -2.3696712415        0.1498500796
 H          6.6289516228       -2.1432680841       -0.6215523973
 H          6.1949374572       -3.3064053335        0.6224220124
 C          4.5333897199       -2.6218707802       -0.5069795498
 H          3.7710382837       -2.7578438519        0.2645128958
 H          4.5965610559       -3.5561121641       -1.0714804938
 C          4.0479006745       -1.5354942764       -1.4749064084
 H          4.8289008769       -1.3178441354       -2.2065929114
 H          3.1783724737       -1.9319968264       -2.0078341039
 H          7.6021418441       -0.1152432077        0.5774444226
 H          6.4395936227        0.7757530283        1.5683250028
 H          6.1912944957        0.0488348107       -1.3780073026
 H          6.2873431763        1.6609847648       -0.6441336828
 O          3.9913916135        1.8372617524        0.1980841331
 C          2.6451740508        2.0496602197        0.4448228584
 O          2.3983390933        3.1178411652        1.0386877423
 H         -1.7154671112       -0.2220369760       -0.7538116581
 C         -1.4210008703       -0.5145789282        0.2392771370
 C         -0.4142018275        0.1657172207        0.9045102671
 C         -0.0149285312       -0.2902866375        2.1584417394
 C         -0.6041388025       -1.4030230125        2.7260039031
 C         -1.6202088876       -2.0717849152        2.0656122194
 C         -2.0233642815       -1.6265358146        0.8126943854
 N         -3.0460217646       -2.2837709198        0.1181412823
 S         -4.0632202784       -1.4512438024       -0.9042815685
 O         -5.2633372671       -2.2605684009       -0.9477670478
 O         -3.4320953977       -1.2049630786       -2.1760647298
 C         -4.4095825619        0.0982364797       -0.0874517123
 C         -4.8764918147        0.0736156695        1.2118557987
 C         -5.1475492130        1.2731038196        1.8498446519
 C         -4.9523815846        2.4717227891        1.1807517433
 C         -4.4916770328        2.4801248107       -0.1264746781
 C         -4.2160298277        1.2828479357       -0.7678968447
 H         -3.8498205610        1.2437300132       -1.7816215229
 H         -4.3422214235        3.4129850849       -0.6468765121
 H         -5.1612360439        3.4049675215        1.6795396540
 H         -5.5083196271        1.2704791513        2.8657054863
 H         -5.0261216313       -0.8733944024        1.7039501000
 H         -3.5140171078       -3.0226828588        0.6200195905
 H         -2.0846123349       -2.9401693761        2.5074047338
 H         -0.2765818990       -1.7504676902        3.6943552758
 H          0.7766435304        0.2350721782        2.6759395618
 C          0.2631239411        1.3830287086        0.3267651269
 H          0.2887420902        2.1561313478        1.1125114283
 C         -0.5058598675        1.9810885418       -0.8416277951
 C          0.1676319857        2.8683794244       -1.8439818347
 C         -0.3194420428        1.5116442635       -2.2515792179
 H         -1.1887868988        1.4403914769       -2.8897612533
 H          0.4059765113        0.7332567304       -2.4289750299
 H         -0.3651019945        3.7369892474       -2.2003816093
 H          1.2325029534        3.0203570693       -1.7430561340
 H         -1.5146336697        2.2610248827       -0.5523739830
 O          1.3437973521       -1.0309509577       -0.9611168227
