  62
        -98.94042139
 C         -1.7961292135       -0.7232715578        0.8692768898
 C         -2.0719046618       -0.2986517359       -0.4542265444
 C         -3.4791274463       -0.3899653459       -0.8700806524
 C         -4.4040236339       -0.8730088301       -0.0220193808
 C         -5.8695103975       -1.0502342152       -0.3132500212
 C         -6.7047458181        0.2195385995       -0.0994740329
 C         -6.5064280553        1.3127847247       -1.1502299903
 H         -6.6378926402        0.8868034432       -2.1453645671
 H         -7.3013106979        2.0466151587       -1.0025302470
 C         -5.1514232653        2.0300858525       -1.0699697884
 H         -5.3056511763        3.1090595898       -1.1431674536
 H         -4.6950086859        1.8389930653       -0.0958656925
 C         -4.1599128814        1.6389882348       -2.1660391802
 H         -3.2238769935        2.1748487346       -1.9882008593
 H         -4.5478799203        1.9507257684       -3.1383595116
 C         -3.8416731697        0.1391740525       -2.2246885216
 H         -2.9784868111       -0.0018556194       -2.8795186295
 H         -4.6882610492       -0.4100251303       -2.6360324334
 H         -6.4813891465        0.6216640789        0.8915640981
 H         -7.7562714577       -0.0766630347       -0.1078869673
 H         -6.0003139371       -1.4058051453       -1.3355842367
 H         -6.2321019545       -1.8193692839        0.3722005733
 O         -4.0961606226       -1.2824928049        1.2379027678
 C         -2.8022046258       -1.1814691810        1.7235235172
 O         -2.6763608821       -1.5256757060        2.9160256490
 O         -1.2043446125        0.1337277024       -1.2546485743
 C         -0.3992026172       -0.6322502325        1.4581699682
 C          0.2300240737        0.6930284197        1.1026156899
 C         -0.4660591442        1.8649072163        1.3917136723
 C          0.0658262180        3.0996937217        1.0794718139
 C          1.3202742851        3.1970081937        0.5015038873
 C          2.0299765963        2.0369816870        0.2249780679
 C          1.4804428449        0.7959131013        0.5163190557
 H          2.0394284368       -0.0886913646        0.2641451764
 N          3.3077166265        2.0868952752       -0.3558352051
 S          4.5142650151        1.1244133160        0.2940501074
 O          4.3286374873        0.9313916076        1.7139270584
 O          5.7503797605        1.7654294570       -0.1027604635
 C          4.3802836048       -0.4327337151       -0.5579493502
 C          4.4277119639       -1.6054674645        0.1695715085
 C          4.3663419652       -2.8156606513       -0.5032828954
 C          4.2611894336       -2.8309391111       -1.8858675432
 C          4.2156426484       -1.6440154590       -2.6016764819
 C          4.2782368924       -0.4309991394       -1.9348648026
 H          4.2457649154        0.5102320035       -2.4575487005
 H          4.1301552863       -1.6613800203       -3.6761905912
 H          4.2114044764       -3.7738568387       -2.4074516867
 H          4.3985559831       -3.7394531984        0.0524451970
 H          4.5016555581       -1.5460439571        1.2439551662
 H          3.6453912010        3.0175338299       -0.5548731997
 H          1.7420778601        4.1620715875        0.2637013856
 H         -0.4944748742        3.9970839307        1.2963846797
 H         -1.4419972316        1.7913208130        1.8536592627
 H         -0.5501265404       -0.6429124249        2.5511996888
 C          0.4919171627       -1.8223884041        1.1324234640
 C         -0.0905250122       -3.1626238813        0.7994320786
 C          0.6096054892       -2.3666792011       -0.2585854139
 H          1.5792049716       -2.7014716587       -0.5972647844
 H          0.0172611477       -1.8936755605       -1.0252467990
 H          0.3970609829       -4.0419223998        1.1926260119
 H         -1.1669299151       -3.2447961204        0.7543402526
 H          1.3934098434       -1.8298120471        1.7385526167
