  62
        -98.93539994
 C         -1.6054846114       -0.3966090444        0.9032940494
 C         -2.8235653795       -1.0219894746        0.5496417821
 C         -3.9846522705       -0.1336996984        0.3416838790
 C         -3.8367732483        1.1985559971        0.4548101303
 C         -4.8359438151        2.3300185615        0.3303372260
 C         -6.2078771904        2.0982479997       -0.2977396586
 C         -6.1826407598        1.7748844962       -1.7912535885
 H         -7.2005272354        1.5333936431       -2.1052559537
 H         -5.8705201124        2.6698394141       -2.3354697028
 C         -5.2522502175        0.6372264921       -2.2047764211
 H         -5.3337966907        0.5163712650       -3.2884733540
 H         -4.2174670035        0.9120982194       -1.9900332131
 C         -5.5488036328       -0.7168226055       -1.5633471365
 H         -4.9214135385       -1.4606808799       -2.0618056675
 H         -6.5918461867       -0.9871293135       -1.7394915174
 C         -5.2652533993       -0.8111361302       -0.0541885233
 H         -6.0978959073       -0.4276857921        0.5304689916
 H         -5.1454479729       -1.8682986969        0.1996880625
 H         -6.7483512334        1.3309185992        0.2486487147
 H         -6.7679113222        3.0289993916       -0.1719723851
 H         -4.9820481019        2.7098590021        1.3476484521
 H         -4.3193208038        3.1214059727       -0.2218836857
 O         -2.6346413157        1.7592769331        0.7785610115
 C         -1.5081549435        0.9937134798        1.0071344803
 O         -0.4917538444        1.6563041850        1.2954260508
 H          2.0347803308       -0.2059736245        0.2780664564
 C          1.6115363374       -0.9219644660       -0.4096467466
 C          0.3865302347       -1.5051832456       -0.1209253853
 C         -0.1593347162       -2.4066740678       -1.0286156871
 C          0.5175560764       -2.7173892852       -2.1934724220
 C          1.7526784851       -2.1551386173       -2.4653173565
 C          2.3038636512       -1.2490379507       -1.5669824548
 N          3.5426671251       -0.6476206367       -1.8233700691
 S          4.5958085904       -0.2829832652       -0.5772838339
 O          5.8892291104       -0.1881276128       -1.2201382208
 O          4.4933887619       -1.2347716059        0.5039870939
 C          4.1022770230        1.3379408857       -0.0343008460
 C          3.9993213947        2.3397337490       -0.9786762426
 C          3.6342939101        3.6110698770       -0.5674745790
 C          3.3816085575        3.8583504458        0.7733534666
 C          3.4934485346        2.8429802779        1.7097676005
 C          3.8584928674        1.5693375409        1.3043175708
 H          3.9513771049        0.7499494259        2.0002456631
 H          3.2915912023        3.0359438521        2.7511658921
 H          3.0930839039        4.8476056706        1.0919285719
 H          3.5446245833        4.4046811473       -1.2918483681
 H          4.2059606433        2.1100290123       -2.0107459502
 H          4.0224339154       -0.9820677738       -2.6458593200
 H          2.2860270852       -2.4114157016       -3.3682582681
 H          0.0846230043       -3.4156204479       -2.8940529107
 H         -1.1206791251       -2.8484107572       -0.8167773807
 C         -0.3152882438       -1.1549647572        1.1694537724
 H          0.3315832487       -0.4521217098        1.7122824600
 C         -0.4987229305       -2.3912312582        2.0288752070
 C          0.7128349785       -3.0109633308        2.6557548791
 C         -0.2904436248       -2.2948856863        3.5085384506
 H         -0.9259882428       -2.8787770013        4.1573938071
 H         -0.0189589456       -1.3313197589        3.9151225294
 H          0.7660754301       -4.0871440383        2.7189145352
 H          1.6674474348       -2.5370353501        2.4772409462
 H         -1.2784680171       -3.0526441140        1.6762763238
 O         -2.9707290632       -2.2657223991        0.4146965649
