  62
        -98.93445731
 C         -2.2956091348       -1.1410894498        0.1050209117
 C         -2.7817730634       -0.1768394453        1.0148581823
 C         -3.1066435687        1.1516608894        0.4640250103
 C         -2.9259215538        1.3741467714       -0.8504845862
 C         -3.1532977474        2.6402836897       -1.6378462635
 C         -4.4220501126        3.4464915592       -1.3208027639
 C         -4.1437154710        4.7587645884       -0.5850892122
 H         -3.2375576561        5.2034416960       -1.0019210528
 H         -4.9663372020        5.4499543797       -0.7811906097
 C         -3.9943090658        4.6375013405        0.9302982783
 H         -4.9701047893        4.4308399457        1.3748813017
 H         -3.6627583751        5.6073599154        1.3082758050
 C         -3.0119506815        3.5650820510        1.4045228100
 H         -2.1197050690        3.5594093084        0.7780146621
 H         -2.6897187271        3.8285795655        2.4142878297
 C         -3.6221679009        2.1559439990        1.4586061197
 H         -3.4216338365        1.7052160689        2.4356008061
 H         -4.7103712728        2.2161138545        1.3712649490
 H         -5.1199396524        2.8322407082       -0.7544581244
 H         -4.9026590669        3.6900697549       -2.2696704835
 H         -2.2691866762        3.2737676092       -1.5233423365
 H         -3.1681456120        2.3210816477       -2.6827098874
 O         -2.4462446300        0.4130560030       -1.6920926779
 C         -2.0987100137       -0.8488843540       -1.2439957949
 O         -1.6463988282       -1.6032563308       -2.1259744852
 H          0.0247613252       -0.7697308550        1.2213048877
 C          0.4438242691       -1.6487906589        0.7448306606
 C         -0.4027224434       -2.6868965484        0.3743784802
 C          0.1543202790       -3.8041469227       -0.2323632580
 C          1.5143568751       -3.8597754227       -0.4889639997
 C          2.3462974374       -2.8099216302       -0.1461317775
 C          1.8012018629       -1.6986762690        0.4807469808
 N          2.6447201434       -0.6061475721        0.8144030443
 S          2.9939879594        0.4094177608       -0.4961355370
 O          2.0377403532        1.4991996638       -0.5242660435
 O          3.1107053213       -0.3862839370       -1.6903713762
 C          4.5971464110        1.0301468767       -0.0241823652
 C          5.6982323786        0.2240785269       -0.2386976123
 C          6.9468226311        0.6748679229        0.1578347622
 C          7.0724446515        1.9168838550        0.7625360461
 C          5.9579341893        2.7144545660        0.9717954709
 C          4.7059737181        2.2682418138        0.5775971731
 H          3.8136558270        2.8579009270        0.7132655442
 H          6.0581009316        3.6804059609        1.4401708409
 H          8.0453173460        2.2663483479        1.0703115781
 H          7.8158864718        0.0581035070       -0.0051953068
 H          5.5526942955       -0.7287490591       -0.7200505024
 H          2.2208185727       -0.0245484080        1.5267552995
 H          3.4000267923       -2.8302989019       -0.3694482863
 H          1.9284175669       -4.7301870679       -0.9748076022
 H         -0.4797842679       -4.6254649674       -0.5237012672
 C         -1.8807332796       -2.5075087053        0.6223919930
 H         -2.0503788252       -2.4755920110        1.7088827740
 C         -2.7397008031       -3.5997026668        0.0236244313
 C         -2.9602520073       -4.8795406728        0.7719053886
 C         -4.0757187566       -3.8883602784        0.6377330239
 H         -4.9023549657       -4.1236214410       -0.0155407544
 H         -4.3566632211       -3.3105349411        1.5061272203
 H         -3.0241652587       -5.7996329853        0.2111196915
 H         -2.4870792960       -4.9814749218        1.7366631861
 H         -2.6656126714       -3.6403403012       -1.0572767867
 O         -2.9238511551       -0.4092694211        2.2472659393
