  62
        -98.94675141
 C          1.6214449335        1.4604512238       -0.0171960754
 C          2.4523357999        0.8529533465        0.9532466379
 C          3.1195161178       -0.3853046724        0.5378454937
 C          2.9194431012       -0.8679584023       -0.7026031915
 C          3.5847138622       -2.0819130610       -1.2933199884
 C          2.8985792208       -3.4108298366       -0.9514644716
 C          3.0567563419       -3.8742925005        0.4965868661
 H          2.7085335685       -4.9078461365        0.5439944737
 H          4.1132408791       -3.8758457882        0.7665418016
 C          2.2650047489       -3.0389444573        1.5124401098
 H          1.5069940232       -2.4512536365        0.9881937838
 H          1.7354595233       -3.7030069569        2.1993684670
 C          3.1248143918       -2.1013937890        2.3607973761
 H          3.7981781901       -2.6895947582        2.9883643669
 H          2.4659343406       -1.5307392203        3.0208838484
 C          3.9617211737       -1.1042785692        1.5479906993
 H          4.3690003133       -0.3580684539        2.2347629294
 H          4.7896497410       -1.6184031264        1.0603348476
 H          3.3257488535       -4.1753274240       -1.6042912114
 H          1.8372828167       -3.3201141690       -1.1852911776
 H          4.6269322206       -2.1151657806       -0.9738192659
 H          3.5590498854       -1.9512882987       -2.3771886895
 O          2.0915384409       -0.2676721108       -1.5974610335
 C          1.4084469953        0.8969370161       -1.2758615013
 O          0.6662090790        1.3228127129       -2.1785562863
 O          2.6303585941        1.3254639132        2.1092602059
 C          0.9048346896        2.7517192996        0.3340615872
 C         -0.5876095234        2.5407608449        0.2790240855
 C         -1.4579750702        3.3737257452       -0.4102326744
 C         -2.8168413367        3.1056696765       -0.4318401461
 C         -3.3371156205        2.0125521234        0.2355795185
 C         -2.4744202696        1.1745379286        0.9325335617
 C         -1.1155108094        1.4447906268        0.9525656664
 H         -0.4455880285        0.7908281193        1.4976990827
 N         -2.9931614099        0.0550093620        1.6183738275
 S         -3.7406214858       -1.1365106706        0.7111964524
 O         -4.8730037200       -0.5622020835        0.0315024498
 O         -4.0248302021       -2.2048423495        1.6415933244
 C         -2.5256172670       -1.6804528684       -0.4764154167
 C         -2.2201921478       -0.8650734797       -1.5483536342
 C         -1.2528159513       -1.2788191384       -2.4501514682
 C         -0.6199010156       -2.4990287969       -2.2715408873
 C         -0.9399662423       -3.3084181669       -1.1915121604
 C         -1.8945486607       -2.8923704030       -0.2779043997
 H         -2.1714792686       -3.4876816207        0.5773724928
 H         -0.4508023573       -4.2604794585       -1.0568370324
 H          0.1279212180       -2.8157509596       -2.9821370860
 H         -0.9841356554       -0.6362897623       -3.2729866478
 H         -2.7337028150        0.0748556807       -1.6683653029
 H         -2.3202275150       -0.3773313630        2.2360309287
 H         -4.3896569305        1.7817769030        0.2124725315
 H         -3.4809573548        3.7591432992       -0.9770464350
 H         -1.0738974681        4.2305906678       -0.9384196841
 H          1.1800359823        2.9632397340        1.3782967524
 C          1.3949585316        3.8884116081       -0.5371936986
 C          1.3443506929        5.2991379863       -0.0337368249
 C          2.6610174348        4.5951263313       -0.1595953843
 H          3.3370282128        4.8978054012       -0.9451267399
 H          3.1591042821        4.2730874401        0.7433855692
 H          1.1184208715        6.0895589624       -0.7334584939
 H          0.9500609180        5.4623281179        0.9578802167
 H          1.2169174170        3.7126624862       -1.5919905692
