  62
        -98.93279289
 C         -2.3803222344       -1.2452151287       -0.0342736275
 C         -2.3626044502        0.1663306249        0.0594196072
 C         -3.6569971516        0.8060395727        0.3392681084
 C         -4.7544765926        0.0464744987        0.5072571751
 C         -6.1402092954        0.5276487860        0.8487345394
 C         -6.8400869201        1.3990813200       -0.2119923381
 C         -6.6669379633        2.9088306366       -0.0048225480
 H         -7.6133856125        3.4048968881       -0.2290522912
 H         -6.4563273377        3.0970726243        1.0485733255
 C         -5.5954074198        3.5821443961       -0.8677101636
 H         -5.9853644368        3.7196549227       -1.8788098967
 H         -5.4045481822        4.5736583726       -0.4515262457
 C         -4.2678984492        2.8332572340       -0.9881794436
 H         -3.5386801598        3.5008285155       -1.4520156252
 H         -4.3837386565        1.9855097453       -1.6678601015
 C         -3.7029157715        2.3062718734        0.3453506013
 H         -2.6734697001        2.6475103746        0.4748403753
 H         -4.2939382101        2.6697044525        1.1847795189
 H         -7.9050758875        1.1683776009       -0.1570344629
 H         -6.4974643617        1.1084697138       -1.2046427549
 H         -6.0979095519        1.0727706520        1.7943646590
 H         -6.7289784643       -0.3773921465        1.0110117813
 O         -4.7220298500       -1.3123269690        0.4255284440
 C         -3.5468831017       -1.9881690790        0.1445991330
 O         -3.6659445521       -3.2289705702        0.0917869191
 O         -1.3204599899        0.8611832745       -0.0744803151
 C         -1.0994087195       -2.0000874538       -0.3406478566
 C         -0.0445953651       -1.6591619413        0.6836608660
 C         -0.3584763266       -1.7926790470        2.0341407178
 C          0.5695514809       -1.4814170319        3.0079733753
 C          1.8277681676       -1.0253135324        2.6555519394
 C          2.1566036950       -0.9012885619        1.3113279225
 C          1.2257457483       -1.2298477218        0.3345596367
 H          1.5026189570       -1.1191196930       -0.6994775693
 N          3.4493101326       -0.4866241193        0.9352769634
 S          3.6500798489        0.6209912705       -0.3247706401
 O          2.9759943909        1.8635169530       -0.0180032322
 O          3.3091522106       -0.0096907499       -1.5735854611
 C          5.4173032676        0.8501914793       -0.2363384534
 C          5.9319907746        1.9744475117        0.3804716267
 C          7.3076479259        2.1251612372        0.4608927537
 C          8.1405686942        1.1526316984       -0.0711911370
 C          7.6092260598        0.0295401954       -0.6880487973
 C          6.2349852846       -0.1262367928       -0.7729192576
 H          5.7768563232       -0.9767183707       -1.2499893761
 H          8.2601490642       -0.7231125688       -1.1028845809
 H          9.2106073108        1.2721473678       -0.0075173532
 H          7.7233343131        2.9987993492        0.9366553967
 H          5.2457485802        2.7082623050        0.7720315305
 H          3.9870926949       -0.1755813881        1.7345455154
 H          2.5495178557       -0.7693149033        3.4167808365
 H          0.3098108316       -1.5846537065        4.0510055518
 H         -1.3477554830       -2.1358232564        2.3073029693
 H         -1.3433537703       -3.0680796722       -0.2396133690
 C         -0.6668463146       -1.7335503750       -1.7670730588
 C          0.1377414002       -2.7536386134       -2.5130680238
 C         -1.2961166239       -2.5166238776       -2.8782802882
 H         -1.5173472845       -2.0091839760       -3.8053158227
 H         -2.0257196051       -3.2648213371       -2.6036716280
 H          0.9072636953       -2.4061382668       -3.1860286350
 H          0.3837000655       -3.6689462363       -1.9962182367
 H         -0.4560128195       -0.6853234521       -1.9512499307
