  62
        -98.93727041
 C          1.8617937892        0.1957578599       -0.0293209300
 C          2.9212223092        0.9887733402        0.4720966996
 C          4.2290117493        0.3285114203        0.5742343097
 C          4.3482285994       -0.9656003198        0.2268963101
 C          5.5912411795       -1.8109210596        0.3196786203
 C          6.7624060393       -1.4045151499       -0.5956988900
 C          7.7910453093       -0.4793029195        0.0663079396
 H          7.7451021794       -0.6200671292        1.1468786196
 H          8.7911702193       -0.7855754596       -0.2471014104
 C          7.6571156492        1.0109035103       -0.2613911409
 H          8.0659324790        1.1950137400       -1.2575731010
 H          8.2691470992        1.5664283006        0.4524691488
 C          6.2361011291        1.5741933802       -0.2389236010
 H          5.7000207490        1.2540066199       -1.1355888408
 H          6.3002788190        2.6629001702       -0.2907967814
 C          5.4020342693        1.1671972606        0.9914274692
 H          6.0173430594        0.6346507609        1.7149690794
 H          4.9929886192        2.0567739207        1.4744950990
 H          7.2704205194       -2.3257089399       -0.8856411798
 H          6.3717478692       -0.9518801702       -1.5067413301
 H          5.9305702696       -1.8222570393        1.3579578002
 H          5.2726161895       -2.8230751098        0.0621455906
 O          3.2966829994       -1.6999882500       -0.2299118695
 C          2.0364051093       -1.1409390902       -0.3865939696
 O          1.1815027493       -1.9262419404       -0.8378380892
 O          2.7783872792        2.1894691303        0.8270462892
 C          0.4893925792        0.8278313098       -0.1866683301
 C         -0.5137684407        0.0701904700        0.6455692903
 C         -0.3176129705        0.0108958004        2.0241198803
 C         -1.1843632004       -0.6977186194        2.8316602306
 C         -2.2729630004       -1.3545359896        2.2835760909
 C         -2.4797280405       -1.3010087801        0.9109991909
 C         -1.6056215207       -0.5856874403        0.1013659706
 H         -1.7787252808       -0.5822914307       -0.9609614194
 N         -3.5634614205       -1.9789818004        0.3315382413
 S         -4.5035524007       -1.2669363309       -0.8506528289
 O         -5.6739749307       -2.1121661710       -0.9361383584
 O         -3.7494376209       -1.0958002813       -2.0654130590
 C         -4.9526301808        0.3175674693       -0.1662302794
 C         -6.0348281507        0.3786834095        0.6904824107
 C         -6.3576151207        1.5905670397        1.2786270004
 C         -5.5902313909        2.7138828696        1.0091781299
 C         -4.5071060809        2.6356185594        0.1476880998
 C         -4.1818504109        1.4270553693       -0.4481838898
 H         -3.3505962410        1.3307819391       -1.1264056199
 H         -3.9123022510        3.5100330994       -0.0632909106
 H         -5.8387365109        3.6566741098        1.4703970596
 H         -7.2027728007        1.6557311698        1.9447725004
 H         -6.6103425306       -0.5160259805        0.8644571311
 H         -4.1384833704       -2.4850608502        0.9888812515
 H         -2.9482151203       -1.9161733895        2.9111295812
 H         -1.0154344603       -0.7390389890        3.8970956906
 H          0.5356117595        0.5212664207        2.4496764300
 H          0.5895588291        1.8399266699        0.2320767995
 C          0.1241063190        0.9436612992       -1.6507464101
 C         -0.8000005911        2.0302775490       -2.1097467804
 C          0.6602681588        2.0988148990       -2.4401925906
 H          0.9697267587        1.9264291687       -3.4601730705
 H          1.2709021088        2.8179140392       -1.9138612609
 H         -1.4972041112        1.8112616387       -2.9052475502
 H         -1.1752825911        2.7125600792       -1.3618271106
 H          0.0731298390       -0.0164668710       -2.1525029798
