  62
        -98.93298097
 C         -2.2735171172        0.2591914781       -0.1740691936
 C         -3.4546001632        0.6610358113       -0.8411857036
 C         -4.6713780344       -0.0900038916       -0.5055997329
 C         -4.6028833107       -1.1066718536        0.3728008285
 C         -5.7317566976       -2.0125049114        0.7889848324
 C         -6.8844247822       -1.3500529110        1.5682444742
 C         -8.0632512713       -0.9033170344        0.6946899401
 H         -8.0693145472       -1.4998018699       -0.2183659780
 H         -8.9937841445       -1.1260770137        1.2207592980
 C         -8.1004392147        0.5846570917        0.3332652256
 H         -8.4659398073        1.1514086500        1.1926442560
 H         -8.8219771523        0.7140322704       -0.4762925897
 C         -6.7675674488        1.2036460984       -0.0884059929
 H         -6.9674866613        2.1936964061       -0.5030937322
 H         -6.1397905575        1.3599172786        0.7921280622
 C         -5.9656407904        0.3728734287       -1.1091380049
 H         -6.5510431306       -0.4755541494       -1.4601844540
 H         -5.7042550767        0.9918574795       -1.9697453140
 H         -7.2505278867       -2.0909528894        2.2807171957
 H         -6.4973993258       -0.5110516526        2.1458688245
 H         -5.2716515764       -2.7788865769        1.4158908192
 H         -6.1319458367       -2.5045551139       -0.1003395666
 O         -3.4402157408       -1.4719493746        0.9804287714
 C         -2.2539643643       -0.7966856907        0.7367817037
 O         -1.2766727364       -1.2299431930        1.3761391496
 O         -3.4881535970        1.5945374037       -1.6877691176
 C         -0.9810361324        1.0016363313       -0.4577098758
 C          0.0727508478        0.0482797971       -0.9638699493
 C         -0.2362316671       -0.7837694277       -2.0378887667
 C          0.6991082595       -1.6669178378       -2.5394707769
 C          1.9685130340       -1.7306210569       -1.9913868673
 C          2.2870158158       -0.9063461261       -0.9195038327
 C          1.3420506276       -0.0230803728       -0.4141416951
 H          1.6189384892        0.6036891550        0.4166496930
 N          3.5571778576       -0.9663952858       -0.3242310910
 S          4.2375926843        0.4548533386        0.2794668434
 O          3.7328266676        0.6947192956        1.6078331967
 O          4.0673742064        1.5287544493       -0.6734114397
 C          5.9535564184       -0.0246291107        0.3677856367
 C          6.3838021766       -0.7542773305        1.4600711560
 C          7.7096385530       -1.1532190452        1.5189933782
 C          8.5784707334       -0.8186476656        0.4907322481
 C          8.1328340297       -0.0844855499       -0.5981129487
 C          6.8077327122        0.3167766884       -0.6639317928
 H          6.4191246812        0.8964978845       -1.4857140763
 H          8.8114601851        0.1771436278       -1.3939074314
 H          9.6100123236       -1.1297490498        0.5399464674
 H          8.0602192145       -1.7213730893        2.3655002623
 H          5.6748322381       -0.9824689144        2.2389512977
 H          4.2222416193       -1.5009520188       -0.8661019165
 H          2.7012111164       -2.4189687605       -2.3844239570
 H          0.4421782335       -2.3070818265       -3.3701751881
 H         -1.2259668250       -0.7281358743       -2.4710532814
 H         -1.2195615091        1.7061907863       -1.2691428271
 C         -0.5483179970        1.7934940286        0.7578231981
 C          0.3067387502        3.0134528476        0.5960484691
 C         -1.1315733700        3.1533055334        0.9925387253
 H         -1.3617226952        3.4478470386        2.0054479159
 H         -1.8304889694        3.5258888743        0.2579294615
 H          1.0719912033        3.2056275251        1.3336448323
 H          0.5912781895        3.2939780749       -0.4071200781
 H         -0.3777558592        1.1653563717        1.6259562531
