  62
        -98.93352681
 C         -2.4980275864       -1.2062160542        0.0222296280
 C         -2.6025508962       -0.0145189243       -0.7326819168
 C         -3.9608872215        0.5320561967       -0.8983511587
 C         -5.0053299913       -0.1145370538       -0.3531806066
 C         -6.4683027761        0.2453790275       -0.4225808598
 C         -6.8419233930        1.7206627528       -0.2176357609
 C         -5.9231350390        2.4989899645        0.7356117223
 H         -6.5364250348        3.0121908296        1.4786403625
 H         -5.2692081702        1.8099705311        1.2729019282
 C         -5.0745340075        3.5526574936        0.0195330035
 H         -5.7022733463        4.0714374866       -0.7082578253
 H         -4.7423861980        4.2928393056        0.7513775198
 C         -3.8260874598        3.0230700565       -0.6853750187
 H         -3.3854210529        3.8457908398       -1.2535960855
 H         -3.0830818387        2.7127899115        0.0547128592
 C         -4.0559938028        1.8366291275       -1.6356321432
 H         -4.9998696492        1.9323854788       -2.1667337272
 H         -3.2423550451        1.8296894343       -2.3660661265
 H         -6.8626236223        2.2279443638       -1.1811292698
 H         -7.8628223325        1.7366019783        0.1675140764
 H         -6.8566409985       -0.0915887652       -1.3879054757
 H         -6.9467715240       -0.3643220771        0.3474438665
 O         -4.8576663317       -1.2707736695        0.3549472607
 C         -3.6134002657       -1.8359828088        0.5707832597
 O         -3.6318467000       -2.8771721501        1.2587152472
 O         -1.6143550908        0.5676656400       -1.2506562909
 C         -1.1360696054       -1.8289272341        0.2700583039
 C         -0.2371423049       -0.8254412567        0.9510733769
 C         -0.6849814915       -0.2184470109        2.1224455504
 C          0.0960467633        0.7116915388        2.7793254799
 C          1.3448293551        1.0501783911        2.2880666987
 C          1.8009054551        0.4515001397        1.1199552988
 C          1.0132233438       -0.4846004625        0.4627177644
 H          1.3929475953       -0.9335300628       -0.4393435591
 N          3.0482606447        0.8045311027        0.5820984290
 S          3.9466402396       -0.3452114853       -0.2620281066
 O          3.4439880384       -0.4473680032       -1.6085852091
 O          4.0117992955       -1.5777154878        0.4914643812
 C          5.5395288377        0.4567538500       -0.2778275957
 C          5.7440951770        1.4946575032       -1.1677739879
 C          6.9683169237        2.1437275599       -1.1695818329
 C          7.9622272199        1.7466781638       -0.2870035151
 C          7.7431687432        0.7021575034        0.5983185079
 C          6.5200437275        0.0497772870        0.6067574713
 H          6.3063337108       -0.7713473071        1.2719116844
 H          8.5190475647        0.3936312425        1.2803336886
 H          8.9144503016        2.2531709807       -0.2916113429
 H          7.1432416437        2.9545105086       -1.8582650025
 H          4.9456514483        1.7618236193       -1.8404768991
 H          3.6229631672        1.3293780743        1.2268671291
 H          1.9553721970        1.7789258714        2.7991945946
 H         -0.2668590307        1.1747180471        3.6848350497
 H         -1.6605681827       -0.4867936088        2.5065246165
 H         -1.3036884680       -2.6642168104        0.9663963945
 C         -0.5641730776       -2.3799535416       -1.0185865692
 C          0.4352419827       -3.4952884428       -0.9791302370
 C         -0.9586001643       -3.7541710900       -1.4651029258
 H         -1.1137760721       -3.9292585788       -2.5190637761
 H         -1.6292811880       -4.3093752094       -0.8253074415
 H          1.2431865415       -3.4872249184       -1.6957898240
 H          0.7179447542       -3.8784090838       -0.0098891240
 H         -0.4470002669       -1.6200528379       -1.7833844428
