  62
        -98.93094790
 C         -2.4798917787       -1.2512056138       -0.1448415748
 C         -2.3690614940        0.0473083273       -0.7011353062
 C         -3.6380630674        0.7741172574       -0.8823543301
 C         -4.7986892295        0.1806436689       -0.5536208770
 C         -6.1511614139        0.8251880665       -0.6411641346
 C         -6.5205474032        1.5203825770        0.6767987569
 C         -5.4216603160        2.4319362148        1.2231794772
 H         -5.8047687391        2.8913915022        2.1369055967
 H         -4.5603719467        1.8224284028        1.5066176003
 C         -4.9660265010        3.5292879891        0.2512821876
 H         -4.8897319594        4.4715516610        0.7978523521
 H         -5.7149044201        3.6671945773       -0.5294010686
 C         -3.6022010708        3.2779627514       -0.3949314462
 H         -2.8655696332        3.0458785575        0.3786638510
 H         -3.2822086456        4.2017237363       -0.8844158473
 C         -3.5584486893        2.1640750338       -1.4486427455
 H         -4.3453924193        2.3251087730       -2.1882849516
 H         -2.5912292136        2.2244379102       -1.9564304049
 H         -7.4313971121        2.1002669370        0.5174578975
 H         -6.7318949371        0.7530699282        1.4250390573
 H         -6.1524295814        1.5450467337       -1.4572005217
 H         -6.8885052153        0.0487708001       -0.8515606190
 O         -4.8664181168       -1.0780679842       -0.0490011586
 C         -3.7175995711       -1.8130265948        0.1793579030
 O         -3.9242446816       -2.9432513277        0.6677057730
 H          1.0374135353       -0.6091910254       -0.5608380722
 C          0.8298540140       -0.6799873166        0.4908527263
 C         -0.2636167445       -1.3805624456        0.9723316060
 C         -0.4963645253       -1.3627996742        2.3487199964
 C          0.3392093425       -0.6805583583        3.2106255591
 C          1.4507526583       -0.0145463682        2.7248899854
 C          1.6880113762       -0.0140904718        1.3572342658
 N          2.7939877557        0.6612305365        0.8166051886
 S          3.6038195366       -0.0834073550       -0.4652009733
 O          3.0426562414        0.3690539323       -1.7123649676
 O          3.6343190241       -1.5133414440       -0.2550047810
 C          5.2380166870        0.6027274325       -0.2609619125
 C          5.5102869043        1.8481577885       -0.7949555664
 C          6.7680785477        2.3980902312       -0.6049183216
 C          7.7270856401        1.6982165193        0.1123180974
 C          7.4400091502        0.4484241739        0.6403899763
 C          6.1835333747       -0.1067023140        0.4553329963
 H          5.9178616806       -1.0783537094        0.8397961698
 H          8.1886664187       -0.0946414557        1.1942744865
 H          8.7053339433        2.1283986015        0.2579883650
 H          6.9955635709        3.3681126735       -1.0166619452
 H          4.7359448227        2.3496225841       -1.3520845055
 H          3.4327183653        1.0049182226        1.5203443291
 H          2.1173624161        0.5079099278        3.3943189125
 H          0.1330942334       -0.6796664295        4.2704234950
 H         -1.3571103627       -1.8919993707        2.7355238961
 C         -1.2629930027       -2.1300482045        0.1283127230
 H         -1.6528587091       -2.9396568114        0.7662769092
 C         -0.8151120577       -2.8283497529       -1.1499451030
 C         -0.1538967410       -2.1820189609       -2.3285478787
 C          0.5992506577       -3.1804236044       -1.5002358314
 H          0.7839184067       -4.1554110559       -1.9277638579
 H          1.4016086045       -2.8249641633       -0.8717316628
 H          0.1093053654       -1.1378905856       -2.2723749821
 H         -0.4870790373       -2.4812081807       -3.3130151033
 H         -1.5575614038       -3.5802066886       -1.4121519233
 O         -1.2847665073        0.5894260122       -1.0327809047
