  62
        -98.94766535
 C          0.7897789978        1.1841603622        0.5963199406
 C          1.2250515263        0.7257680825       -0.6704981642
 C          2.1605207004       -0.4053673821       -0.6475866146
 C          2.5080451723       -0.9626255219        0.5260896949
 C          3.4935139991       -2.0835290491        0.7159690962
 C          4.9551051414       -1.6149722582        0.7613052723
 C          5.5445844394       -1.1950616008       -0.5860662116
 H          6.6246163917       -1.1103199247       -0.4497855445
 H          5.3702628476       -1.9829415915       -1.3193262738
 C          5.0113540375        0.1394323359       -1.1257915166
 H          4.5401600494        0.6993311283       -0.3144685325
 H          5.8460288936        0.7443023864       -1.4876703729
 C          4.0154240592        0.0070827647       -2.2782763277
 H          4.5139532275       -0.4333267993       -3.1445341448
 H          3.6806212422        1.0096148994       -2.5561092639
 C          2.7735626400       -0.8316419380       -1.9469574328
 H          2.0309398276       -0.6690360574       -2.7314515982
 H          3.0303200942       -1.8895712845       -1.9186436577
 H          5.0369256509       -0.7870878254        1.4694518338
 H          5.5511938317       -2.4437227118        1.1503608388
 H          3.2545792873       -2.5544054860        1.6712197566
 H          3.3772508500       -2.8190879712       -0.0787075652
 O          1.9863322855       -0.5545456713        1.7145704181
 C          1.1402767983        0.5403851864        1.7816568870
 O          0.7701708472        0.8348721381        2.9378952198
 H         -1.6084877050        0.2594374891        0.4836051440
 C         -1.9955971030        1.0601911804       -0.1299158669
 C         -1.3227732425        2.2748096578       -0.1572218380
 C         -1.8391228973        3.3039553379       -0.9342731310
 C         -2.9932128731        3.1097542259       -1.6729927992
 C         -3.6571280109        1.8977520561       -1.6468443892
 C         -3.1508046235        0.8624956839       -0.8677580793
 N         -3.7780150712       -0.3882380566       -0.8499725971
 S         -3.5755520510       -1.4670107168        0.3988612734
 O         -4.6000412403       -2.4648691072        0.1710341829
 O         -3.6121924944       -0.8192523807        1.6898590057
 C         -1.9856755042       -2.2120158374        0.1101381337
 C         -1.6268696300       -2.5388691615       -1.1820723701
 C         -0.4243418424       -3.1917961864       -1.3968401242
 C          0.3877372172       -3.5155735516       -0.3215692767
 C          0.0177923242       -3.1736543690        0.9693479893
 C         -1.1796958324       -2.5130714256        1.1895792083
 H         -1.4975782616       -2.2171784822        2.1777173938
 H          0.6534665054       -3.4151490546        1.8062041587
 H          1.3129602039       -4.0430997761       -0.4884631534
 H         -0.1264045648       -3.4503991515       -2.4000381421
 H         -2.2859009508       -2.2788408752       -1.9935331114
 H         -4.6768584015       -0.4483440333       -1.3027826568
 H         -4.5552000830        1.7466449318       -2.2257687526
 H         -3.3825785514        3.9154492911       -2.2767475988
 H         -1.3370283541        4.2569321084       -0.9652647941
 C         -0.0826020085        2.4216139668        0.6891626453
 H         -0.3990690904        2.4958872046        1.7408609677
 C          0.7403339638        3.6461701980        0.3389573888
 C          0.4584780341        4.9656237561        0.9904466221
 C          1.6885499091        4.1943065670        1.3611294301
 H          2.6490350268        4.5613523906        1.0315585690
 H          1.7159570462        3.7021583549        2.3229059832
 H         -0.3467392188        5.0073116611        1.7084882447
 H          0.5780744652        5.8662377375        0.4071423700
 H          1.0670584805        3.6431617804       -0.6948972698
 O          0.8681013876        1.2434712441       -1.7597987145
