  62
        -98.94951816
 C          1.6063825478        0.8425149552       -0.7110664915
 C          1.4599238372        1.6435147169        0.4467054381
 C          0.4431473818        2.7029638059        0.3683160717
 C         -0.2992478954        2.8246425156       -0.7465123400
 C         -1.3655835240        3.8597434522       -0.9627573027
 C         -2.7538398982        3.3653330882       -0.5360186541
 C         -2.7960410520        2.7474259776        0.8617741086
 H         -3.8371676565        2.4896909484        1.0724440558
 H         -2.2334696419        1.8108917363        0.8739432274
 C         -2.2590974299        3.6536202689        1.9777362540
 H         -2.9370313408        3.5906776453        2.8316368485
 H         -2.2488052448        4.6930071848        1.6457326009
 C         -0.8689456914        3.2624277540        2.4836517210
 H         -0.6950146923        3.7722646509        3.4354845185
 H         -0.8456626221        2.1859247237        2.6757083343
 C          0.3011842191        3.6127237328        1.5552466728
 H          0.2195701220        4.6549194630        1.2370356015
 H          1.2258674996        3.4994754739        2.1290749001
 H         -3.4444753952        4.2101556408       -0.5786804572
 H         -3.0952758884        2.6149150683       -1.2531657901
 H         -1.3905215503        4.1033579037       -2.0267158685
 H         -1.1041408969        4.7558780895       -0.4028056493
 O         -0.1678280581        1.9993076292       -1.8173717649
 C          0.7799144802        0.9870916343       -1.8239530009
 O          0.7883423432        0.2973789322       -2.8635621675
 O          2.1588390522        1.5007083416        1.4842656267
 C          2.6354783616       -0.2749395328       -0.7393188201
 C          2.3100251882       -1.2717575230        0.3463127730
 C          3.2418976342       -1.7856328026        1.2377801442
 C          2.8446516750       -2.6671091203        2.2291399523
 C          1.5192819516       -3.0382469308        2.3626311963
 C          0.5817640670       -2.5394735287        1.4649502401
 C          0.9894432207       -1.6888356418        0.4523664013
 H          0.2611818997       -1.3076102750       -0.2486005967
 N         -0.7745378756       -2.8887175488        1.5502842970
 S         -1.9303787056       -1.7367599135        1.1703959929
 O         -1.4998834934       -0.4042761881        1.5202416917
 O         -3.1321894533       -2.2064827850        1.8296139648
 C         -2.1489476735       -1.8930210433       -0.5885359837
 C         -2.2635182215       -3.1575631264       -1.1312817605
 C         -2.4500721835       -3.2825929945       -2.4983161865
 C         -2.5206103852       -2.1492393563       -3.2946175031
 C         -2.4120334476       -0.8867101388       -2.7336717935
 C         -2.2270103914       -0.7564718322       -1.3670616932
 H         -2.1202045478        0.2081133551       -0.8956931272
 H         -2.4511372805       -0.0036094809       -3.3511353228
 H         -2.6572770681       -2.2474991743       -4.3599708415
 H         -2.5347069628       -4.2622344772       -2.9405945517
 H         -2.1994767637       -4.0141389095       -0.4812454375
 H         -1.0285266489       -3.4291325911        2.3644527610
 H          1.2084287105       -3.7023392285        3.1547490220
 H          3.5762086127       -3.0559203854        2.9212975074
 H          4.2748795574       -1.4870063835        1.1667597946
 H          2.5126713118       -0.7759941368       -1.7109300049
 C          4.0383240431        0.2870218472       -0.6512800332
 C          5.1857436353       -0.4500501088       -1.2721897268
 C          4.6838199021        0.8168859856       -1.8951634693
 H          5.2912366814        1.7064169330       -1.8218134593
 H          4.1188839431        0.7488945329       -2.8136063458
 H          6.1428474075       -0.4292383350       -0.7732512409
 H          4.9689136011       -1.3805666860       -1.7744887017
 H          4.2128333793        0.8273318204        0.2718865074
