  62
        -98.93906911
 C         -2.1715320302       -0.2401016048        0.3697879925
 C         -3.1934494318       -0.6759911894       -0.5092245841
 C         -4.2301268648        0.3174317336       -0.8317054346
 C         -4.1459294656        1.5573355604       -0.3185898728
 C         -5.1591687687        2.6449182597       -0.5253095539
 C         -6.2286112746        2.6241331734        0.5760185331
 C         -6.8297210223        1.2412115164        0.8275642126
 H         -6.0555739322        0.5847970840        1.2316538199
 H         -7.5911020328        1.3541401785        1.6024265735
 C         -7.4542487700        0.5850460808       -0.4117215579
 H         -8.4190344617        0.1568107933       -0.1318557630
 H         -7.6442177144        1.3408233767       -1.1745986950
 C         -6.6228776839       -0.5476224382       -1.0167582756
 H         -6.3512251217       -1.2606549161       -0.2344251793
 H         -7.2471841433       -1.0779389617       -1.7406807853
 C         -5.3419174725       -0.1198788089       -1.7440777741
 H         -5.5738389556        0.6613868606       -2.4704116913
 H         -4.9600453169       -0.9905776580       -2.2846887222
 H         -5.7741361831        2.9739222773        1.5059187554
 H         -7.0206880244        3.3230041507        0.3010262440
 H         -4.6418253173        3.6054203978       -0.4994657733
 H         -5.6247306839        2.5197365632       -1.5009082010
 O         -3.1362695038        1.9490569743        0.5009684751
 C         -2.1400084043        1.0640652978        0.8729100230
 O         -1.2944986485        1.5499277447        1.6525609918
 O         -3.2624291324       -1.8305876607       -1.0054816197
 C         -1.0312880756       -1.1429178428        0.8156769787
 C          0.0008778907       -1.2733584863       -0.2797023390
 C         -0.1930191972       -2.1006673461       -1.3810628063
 C          0.7800631396       -2.2014528780       -2.3583605040
 C          1.9671164755       -1.4994860986       -2.2499376263
 C          2.1643220972       -0.6583688115       -1.1606828821
 C          1.1796161560       -0.5456818695       -0.1895397033
 H          1.3405838149        0.1187627542        0.6479218904
 N          3.3470758944        0.0888529137       -1.0393600497
 S          3.9668673380        0.3712897224        0.5049825919
 O          3.8554779183       -0.8247291453        1.3095793778
 O          3.3602257631        1.5640198857        1.0408602907
 C          5.6775992407        0.6915610214        0.1149275583
 C          6.6047866433       -0.3246901326        0.2482568166
 C          7.9276436503       -0.0726769510       -0.0802248372
 C          8.2982607210        1.1831916138       -0.5367898386
 C          7.3563285034        2.1933959184       -0.6652397497
 C          6.0323171084        1.9487220855       -0.3371642685
 H          5.2675566356        2.7045436508       -0.4100495258
 H          7.6485417392        3.1694606802       -1.0175846011
 H          9.3281830371        1.3772401041       -0.7913360919
 H          8.6624821393       -0.8548444297        0.0220094410
 H          6.2715104916       -1.2819780568        0.6155197779
 H          4.0661669730       -0.2034157152       -1.6870313525
 H          2.7316514859       -1.5921050715       -3.0063847612
 H          0.6171069559       -2.8452209559       -3.2095180307
 H         -1.1202345522       -2.6427501697       -1.4749753462
 H         -0.5510721642       -0.6190435591        1.6541297113
 C         -1.5037833090       -2.4972179232        1.3075459488
 C         -0.5628883410       -3.3348243381        2.1182642223
 C         -1.7530706908       -2.6986607316        2.7702975720
 H         -2.5758382453       -3.3300700772        3.0706634568
 H         -1.5855837388       -1.8570656589        3.4274153396
 H         -0.5674364375       -4.4039743907        1.9718341653
 H          0.4136720586       -2.9233638695        2.3295278417
 H         -2.1654600252       -3.0034875493        0.6176790018
