  62
        -98.95046051
 C         -1.7604847727       -1.2883468375       -0.2378883482
 C         -2.8523026383       -0.6492283531        0.3926387651
 C         -3.2709841564        0.6317743952       -0.1896543876
 C         -2.6147225519        1.1144868066       -1.2607045221
 C         -2.9222733752        2.4175723022       -1.9393562695
 C         -2.0778166004        3.5632084967       -1.3663742702
 C         -2.0970115984        3.6445661845        0.1600210535
 H         -1.5723553150        2.7759474171        0.5659783692
 H         -1.5090587372        4.5209034820        0.4440231172
 C         -3.4984690871        3.7475103808        0.7779373908
 H         -3.4761636589        4.5081791434        1.5613471722
 H         -4.2121690224        4.0801530864        0.0228755259
 C         -4.0084274413        2.4589280440        1.4261181176
 H         -3.2420524731        2.0640481872        2.0986691435
 H         -4.8826097836        2.7073346281        2.0343621011
 C         -4.4245376939        1.3426905116        0.4597590586
 H         -5.1071878965        1.7427234072       -0.2928683479
 H         -4.9573590564        0.5823895864        1.0387456512
 H         -1.0402609957        3.4212743429       -1.6781815383
 H         -2.4388250411        4.5030831907       -1.7895285913
 H         -2.6976991776        2.3108774609       -3.0022981000
 H         -3.9813478127        2.6400548926       -1.8221553282
 O         -1.5705824237        0.4722413969       -1.8405402408
 C         -1.0960363105       -0.7215767772       -1.3244402673
 O         -0.1020775747       -1.1811237535       -1.9208177226
 O         -3.4500113684       -1.1302046182        1.3950105448
 C         -1.2398220802       -2.5987722367        0.3241938732
 C          0.2149702412       -2.4543824846        0.6975796256
 C          1.1710808056       -3.4331270365        0.4561687051
 C          2.4962330092       -3.2199127277        0.7962980141
 C          2.9003165923       -2.0223462517        1.3576284453
 C          1.9487508441       -1.0422911662        1.6131967514
 C          0.6176878112       -1.2769495287        1.3144774760
 H         -0.1082020637       -0.5049262722        1.5242284377
 N          2.3008074574        0.2161987088        2.1487350891
 S          2.0770657136        1.5246494469        1.1192010048
 O          2.5623142093        2.6726793340        1.8556483174
 O          0.7072465205        1.5778343225        0.6834109738
 C          3.1832172844        1.1847576446       -0.2384721747
 C          4.4501122679        1.7367510138       -0.2032601363
 C          5.3527187646        1.4137783202       -1.2027739691
 C          4.9784019075        0.5371402504       -2.2104954550
 C          3.7053675695       -0.0106629924       -2.2284584345
 C          2.7935548297        0.3112372415       -1.2337392975
 H          1.7964621875       -0.1023759301       -1.2359665354
 H          3.4052513260       -0.6925310369       -3.0079516988
 H          5.6812285328        0.2796862026       -2.9871547431
 H          6.3423268222        1.8414112495       -1.1912176041
 H          4.6935404113        2.4142490720        0.5994359298
 H          3.2420418881        0.2495131734        2.5177281804
 H          3.9385391431       -1.8432096467        1.5936593496
 H          3.2274409645       -3.9892712461        0.6010113000
 H          0.8795967416       -4.3616688304       -0.0068529129
 H         -1.8197297802       -2.7766411850        1.2425716065
 C         -1.5009401106       -3.7326915563       -0.6459952302
 C         -1.7518278244       -5.1217793184       -0.1416631987
 C         -2.8779260141       -4.3190648564       -0.7180893074
 H         -3.2707290111       -4.5958544306       -1.6848656823
 H         -3.6210104295       -3.9177871445       -0.0443869263
 H         -1.3740897363       -5.9547926290       -0.7151743699
 H         -1.7373382715       -5.2765324321        0.9266001021
 H         -0.9584694007       -3.6134898081       -1.5773062842
