  62
        -98.94598166
 C          1.6157934690        1.2960245896        0.3732521320
 C          1.5423545917        0.2475128183       -0.5752108951
 C          2.4152489354       -0.9096695879       -0.3201091390
 C          3.1773703074       -0.9347967542        0.7880600145
 C          4.1402950068       -2.0289805065        1.1447559347
 C          5.5448024835       -1.7292830941        0.6022376006
 C          5.5645588174       -1.3251059173       -0.8720354377
 H          5.0557572950       -0.3650963491       -0.9860742098
 H          6.6086111551       -1.1694281523       -1.1523115093
 C          4.9290549711       -2.3510573021       -1.8208706042
 H          5.5785743805       -2.4723341846       -2.6903798230
 H          4.8647379349       -3.3218726783       -1.3280869211
 C          3.5480135466       -1.9584012745       -2.3493365358
 H          3.2935811141       -2.6350580094       -3.1695796371
 H          3.5879771272       -0.9467615356       -2.7612547654
 C          2.4012229581       -2.0218178515       -1.3322266705
 H          1.4628462846       -1.9176717415       -1.8852775218
 H          2.4038775759       -2.9974343459       -0.8413601583
 H          6.1670766910       -2.6142532344        0.7469647919
 H          5.9750330469       -0.9123754849        1.1861280572
 H          3.7787573959       -2.9730285742        0.7418494421
 H          4.1894940165       -2.1026449271        2.2323720550
 O          3.1896241547        0.0718369067        1.6974233083
 C          2.4252950440        1.2092184627        1.5105566161
 O          2.5473532979        2.0619397937        2.4111734844
 O          0.7977725611        0.2584775761       -1.5911010533
 C          0.7764649778        2.5593337402        0.2410956397
 C         -0.6601663725        2.1801192830        0.5027008380
 C         -1.1394792328        2.1499129361        1.8091506793
 C         -2.4211608941        1.7077489791        2.0816931937
 C         -3.2404079847        1.2552923208        1.0615353386
 C         -2.7619962685        1.2659849773       -0.2416127440
 C         -1.4935048814        1.7551911174       -0.5198443351
 H         -1.1358972801        1.7489734740       -1.5367860558
 N         -3.5525660232        0.7275484558       -1.2741956568
 S         -4.2111258169       -0.7828730287       -0.9703279563
 O         -4.2526027029       -1.4546036935       -2.2510271820
 O         -5.4873451825       -0.6193523379       -0.3169268576
 C         -3.0878515667       -1.6161098016        0.1446276868
 C         -1.7387470491       -1.6586933485       -0.1477891677
 C         -0.8841173639       -2.2960501291        0.7374281142
 C         -1.3864302691       -2.8875760457        1.8857750323
 C         -2.7446349664       -2.8465351370        2.1590155777
 C         -3.6032593270       -2.2014971474        1.2839172124
 H         -4.6637560228       -2.1320016008        1.4644804791
 H         -3.1345346332       -3.3076389881        3.0521035304
 H         -0.7127009913       -3.3791418293        2.5698380355
 H          0.1739069740       -2.3122530500        0.5270911938
 H         -1.3513592036       -1.1878404505       -1.0379155322
 H         -3.0874327258        0.7334585261       -2.1712171401
 H         -4.2336220128        0.8828176802        1.2553095122
 H         -2.7819114951        1.6996256622        3.0987967124
 H         -0.4859191145        2.4620312512        2.6115767648
 H          1.1070276036        3.2255654315        1.0481760119
 C          0.9940683213        3.2573624884       -1.0851947482
 C          0.5075750322        4.6640481823       -1.2567126711
 C          1.9770365353        4.3847087854       -1.1661578665
 H          2.5771769948        4.4818031180       -2.0586347197
 H          2.4957786990        4.6630093286       -0.2602775273
 H          0.0969334349        4.9564873244       -2.2110656109
 H          0.0271569119        5.1308312457       -0.4100891226
 H          0.9368617748        2.5954717694       -1.9398651133
