  62
        -98.94449897
 C         -2.6415060514       -1.2857465985        0.1070754596
 C         -2.5843410609       -0.2954901877       -0.9035288018
 C         -3.5269205242        0.8245724488       -0.7587177566
 C         -4.3787193069        0.8461186401        0.2819073054
 C         -5.3506321306        1.9508530208        0.5760993520
 C         -4.7285143499        3.0057996247        1.5014951986
 C         -3.3474127262        3.4849449117        1.0535334903
 H         -3.0226341042        4.2502475420        1.7618629464
 H         -2.6368366597        2.6580889083        1.1298581834
 C         -3.3040215877        4.0571801331       -0.3702065234
 H         -2.7173933570        4.9781909476       -0.3590543613
 H         -4.3117104124        4.3176896760       -0.6963097431
 C         -2.6593615586        3.1343495233       -1.4064819401
 H         -2.4817472820        3.7161523664       -2.3152972379
 H         -1.6844988617        2.7972631404       -1.0418977694
 C         -3.4820304737        1.9022798389       -1.8051072490
 H         -4.4911214068        2.2098003080       -2.0869059126
 H         -3.0025397699        1.4526864657       -2.6796458554
 H         -5.4085373916        3.8574536195        1.5602821971
 H         -4.6327790070        2.5765691636        2.5013852768
 H         -6.2233140499        1.5184386392        1.0682545241
 H         -5.6633318722        2.4113874494       -0.3588825060
 O         -4.4169579559       -0.1305224827        1.2230458449
 C         -3.5427932636       -1.2014475422        1.1726326389
 O         -3.6683155307       -2.0082606027        2.1150012496
 O         -1.7997897699       -0.3309926413       -1.8890230432
 C         -1.6980673805       -2.4802740763        0.1209165558
 C         -0.3186624236       -1.9838688415        0.4809604559
 C          0.0590042510       -1.9130652874        1.8187295269
 C          1.2891809598       -1.3940052799        2.1775605078
 C          2.1633979269       -0.9240873821        1.2126420487
 C          1.7877806562       -0.9736317854       -0.1225916111
 C          0.5627861667       -1.5188096857       -0.4828511934
 H          0.2752742126       -1.5348383972       -1.5222004372
 N          2.6591474648       -0.4785651224       -1.1095481327
 S          3.2988610338        1.0578213147       -0.8795320219
 O          2.4332480693        1.8837430292       -0.0692782360
 O          3.6017698560        1.5478167316       -2.2066666337
 C          4.8281097673        0.7452582575       -0.0205317776
 C          5.0904239844        1.3797865521        1.1777190344
 C          6.2898237481        1.1228780064        1.8239043222
 C          7.2011086756        0.2414806585        1.2628642568
 C          6.9241414438       -0.3851301696        0.0568288672
 C          5.7277642169       -0.1316320163       -0.5945667731
 H          5.4753124030       -0.5944187395       -1.5338554035
 H          7.6353892751       -1.0696004935       -0.3766470697
 H          8.1325775996        0.0419442360        1.7686870656
 H          6.5068764095        1.6097978278        2.7611047152
 H          4.3491739763        2.0525971189        1.5792077364
 H          2.2850775999       -0.5639182285       -2.0443952859
 H          3.1186850010       -0.5066758472        1.4861000172
 H          1.5699167747       -1.3499864637        3.2189575144
 H         -0.6338876460       -2.2545719646        2.5751607107
 H         -2.0481740520       -3.1261145904        0.9367234894
 C         -1.7425372139       -3.2686703608       -1.1715908546
 C         -1.1577479091       -4.6477746063       -1.2026683608
 C         -2.6431952138       -4.4617224983       -1.2676991190
 H         -3.1479078645       -4.6509530981       -2.2032769568
 H         -3.2297072560       -4.7165864914       -0.3969821458
 H         -0.6401336659       -4.9687766156       -2.0935578684
 H         -0.7349284069       -5.0291860365       -0.2856099537
 H         -1.6435902935       -2.6558284685       -2.0580811699
