  62
        -98.93490413
 C         -2.2941285862       -0.4886089771        0.1984526880
 C         -3.5279522889       -1.0589263093        0.5864736614
 C         -4.6874183361       -0.1512543132        0.6221550338
 C         -4.5117339354        1.1423277088        0.3004327689
 C         -5.5638161527        2.2136206353        0.2178419561
 C         -6.1006815328        2.3371498731       -1.2183623629
 C         -7.2637330432        1.4043915530       -1.5542910098
 H         -8.1586704149        1.7438208205       -1.0285843197
 H         -7.4569767327        1.4996103498       -2.6252721704
 C         -7.0346681506       -0.0732694688       -1.2258366559
 H         -6.0257880194       -0.3645536900       -1.5239982756
 H         -7.7311062719       -0.6612965982       -1.8267618912
 C         -7.2576847643       -0.4033854651        0.2574641013
 H         -7.7559205497        0.4382556901        0.7381879162
 H         -7.9374595729       -1.2539046746        0.3398678666
 C         -5.9913455962       -0.7718306872        1.0448181375
 H         -6.1541265806       -0.5522732434        2.1052542771
 H         -5.8188580592       -1.8502599909        0.9728908874
 H         -5.2689970365        2.1515546843       -1.9030858553
 H         -6.4335471833        3.3643094034       -1.3807800212
 H         -6.3669053840        2.0206578030        0.9228256447
 H         -5.0742617081        3.1515023190        0.4880366615
 O         -3.3011831273        1.6534773839       -0.0597888396
 C         -2.1670824213        0.8621286431       -0.1223718184
 O         -1.1335251433        1.4680166792       -0.4658881164
 H          1.6233014755       -0.9996621756       -0.3965014461
 C          1.3399052290       -0.7171340780        0.6027126833
 C          0.0252347305       -0.8381820247        1.0245984452
 C         -0.2931653469       -0.4706551705        2.3297574500
 C          0.6743468462        0.0313451499        3.1773941676
 C          1.9804314825        0.1754846073        2.7436332441
 C          2.3145738262       -0.2078930225        1.4504079928
 N          3.6494132121       -0.1259359103        1.0149894415
 S          4.0167701682        0.2553949193       -0.5867389894
 O          3.4373942223        1.5284741674       -0.9541721721
 O          3.6886292150       -0.8676378376       -1.4273477675
 C          5.7897741477        0.3999593233       -0.4516597705
 C          6.5433455761       -0.7583056551       -0.4202419070
 C          7.9188114844       -0.6594019631       -0.2848974096
 C          8.5151149735        0.5888618211       -0.1831139866
 C          7.7464105855        1.7424051887       -0.2185998424
 C          6.3696987112        1.6502910095       -0.3523844822
 H          5.7329309440        2.5196007652       -0.3928658468
 H          8.2128651340        2.7114625470       -0.1428849042
 H          9.5860155284        0.6632768753       -0.0785945564
 H          8.5200818975       -1.5538476942       -0.2597590821
 H          6.0366698108       -1.7047602209       -0.5112168687
 H          4.2214662553        0.4246001074        1.6417605229
 H          2.7348223844        0.5776708378        3.4027891210
 H          0.4093508712        0.3211542037        4.1832466982
 H         -1.3159077744       -0.5746812610        2.6664461708
 C         -1.0641573315       -1.3736629453        0.1286133818
 H         -1.3832632961       -2.3508632121        0.5222909897
 C         -0.6261060567       -1.5505856785       -1.3101470569
 C          0.0651753639       -2.8081274333       -1.7415762533
 C         -1.3434919308       -2.5405070734       -2.1763535790
 H         -1.5276173003       -2.2837558926       -3.2088253293
 H         -2.1370330459       -3.1132820096       -1.7188452199
 H          0.2275975298       -3.5685835666       -0.9927209213
 H          0.8583096260       -2.7325928607       -2.4705366195
 H         -0.3166832744       -0.6165218716       -1.7687040875
 O         -3.6564420587       -2.2759880327        0.8907073460
