  62
        -98.93531418
 C         -1.9960825841       -1.5728733144       -0.0950589733
 C         -1.6110897867       -0.3053191396       -0.5968544441
 C         -2.6941203964        0.6891694185       -0.6968551901
 C         -3.9576510640        0.3289086095       -0.4107960848
 C         -5.1485113448        1.2410476156       -0.4625208390
 C         -5.4149844828        1.8848341566        0.9047589575
 C         -4.1719781098        2.5072183335        1.5400598591
 H         -4.4820523185        2.9663107134        2.4813454429
 H         -3.4631363601        1.7136404224        1.7878929887
 C         -3.4731105755        3.5556277485        0.6637613179
 H         -4.1572089576        3.9064783114       -0.1096629075
 H         -3.2202110167        4.4166510722        1.2861661280
 C         -2.1718960048        3.0791637237        0.0146656146
 H         -1.5258479927        2.6331742446        0.7747389666
 H         -1.6577079695        3.9576266064       -0.3821872594
 C         -2.3162740733        2.0757329203       -1.1366600785
 H         -3.0277871269        2.4561917113       -1.8722732452
 H         -1.3383699761        1.9782058663       -1.6171818765
 H         -6.1864355688        2.6476320621        0.7840342210
 H         -5.7993812132        1.1174823277        1.5808147352
 H         -4.9785490178        2.0109087019       -1.2124184811
 H         -6.0197215615        0.6507282508       -0.7520611977
 O         -4.2957097817       -0.9194780327        0.0042110085
 C         -3.3246550645       -1.8830571530        0.2037260786
 O         -3.7591580325       -2.9697437029        0.6384992974
 H          1.5789787239       -2.0837379222       -0.9295586530
 C          1.4573321857       -1.8912743572        0.1214583983
 C          0.2560866079       -2.1488151249        0.7616063389
 C          0.1589048032       -1.8143770878        2.1127387337
 C          1.2182776326       -1.2456922470        2.7924282568
 C          2.4193994868       -1.0066619938        2.1479686409
 C          2.5316788790       -1.3335626760        0.8049405180
 N          3.7491558996       -1.1242691508        0.1291906636
 S          4.4833044464        0.3768587741        0.1838390881
 O          5.5369524807        0.3071654581       -0.8037735835
 O          4.8971460525        0.6559150942        1.5360940613
 C          3.2467134958        1.5491643543       -0.3354089889
 C          2.5007880086        2.2214771083        0.6100459843
 C          1.5340299893        3.1168069398        0.1832023252
 C          1.3265448787        3.3154317478       -1.1722308748
 C          2.0770052467        2.6238205831       -2.1094187543
 C          3.0465538267        1.7296675053       -1.6889935816
 H          3.6618779700        1.1830282935       -2.3858229352
 H          1.9072251612        2.7766919412       -3.1633160683
 H          0.5747642003        4.0150268467       -1.5023400004
 H          0.9447190812        3.6550890893        0.9082559179
 H          2.6950281320        2.0413690596        1.6549335196
 H          3.7345375306       -1.4510142300       -0.8266204835
 H          3.2592003219       -0.5656845020        2.6597792340
 H          1.1111705456       -0.9900967601        3.8360057262
 H         -0.7764878475       -1.9951793083        2.6257227632
 C         -0.9918638654       -2.7016088028        0.1217351097
 H         -1.4631943639       -3.3518463375        0.8767707444
 C         -0.9297175358       -3.5541093927       -1.1393727701
 C         -0.2640018601       -3.1571964774       -2.4206781898
 C          0.2674074114       -4.3132127112       -1.6238061532
 H          0.1056769399       -5.3078169661       -2.0127231473
 H          1.1974020044       -4.2046492536       -1.0896604732
 H         -0.7851036077       -3.3729145593       -3.3427998557
 H          0.2731004441       -2.2227329758       -2.4493488604
 H         -1.8860242012       -4.0591176487       -1.2569829404
 O         -0.4420605495       -0.0044420205       -0.9468539950
