  62
        -98.93665044
 C         -2.4553249481       -0.2512213086        0.5043613889
 C         -2.1733100057        0.4865941038       -0.6676538988
 C         -1.7093820026        1.8733978350       -0.4809817439
 C         -1.5627260437        2.3498712911        0.7678473574
 C         -1.0291340630        3.6866954818        1.2191622721
 C         -1.4701960469        4.9298441842        0.4325781563
 C         -0.3591942262        5.5282397216       -0.4323064240
 H         -0.5731542982        6.5875947493       -0.5912516742
 H          0.5808979882        5.4633284841        0.1194150627
 C         -0.1820796289        4.8832280574       -1.8054564292
 H          0.7183034280        5.3076480913       -2.2555510098
 H         -1.0254894217        5.1561544239       -2.4435411120
 C         -0.0565494334        3.3585916535       -1.8060186500
 H          0.5796514326        3.0126605266       -0.9907046635
 H          0.4373168352        3.0631010738       -2.7343522206
 C         -1.4083628011        2.6312110996       -1.7444018952
 H         -2.2226370100        3.3334694798       -1.9444760351
 H         -1.4526416770        1.8745914346       -2.5337263318
 H         -2.3422743999        4.6945502271       -0.1747701563
 H         -1.7749847587        5.6865118613        1.1574872721
 H         -1.3422650981        3.7771826901        2.2622877072
 H          0.0627106621        3.6187669275        1.2286597980
 O         -1.8651190751        1.6058760975        1.8725522813
 C         -2.2874137957        0.2940806217        1.7741035046
 O         -2.4877164755       -0.2698361742        2.8713013120
 H         -0.2267201874       -1.4001199733        0.9334938468
 C         -0.3685545525       -2.1017377798        0.1229005443
 C         -1.6559835251       -2.4286688811       -0.2849078611
 C         -1.8122391808       -3.3521748332       -1.3094721847
 C         -0.7016841978       -3.8967269258       -1.9325095854
 C          0.5767633706       -3.5215089266       -1.5640107169
 C          0.7427664893       -2.6142088749       -0.5225777296
 N          2.0232321275       -2.2143254557       -0.1019753917
 S          2.2107451812       -0.6480688385        0.5050427355
 O          1.8812885567       -0.6557137629        1.9100912307
 O          1.5084467216        0.3108657786       -0.3154200063
 C          3.9731829390       -0.4512493015        0.3100375961
 C          4.4613115933        0.2450460907       -0.7793436745
 C          5.8332216048        0.3629890111       -0.9398316940
 C          6.6885809965       -0.2177072945       -0.0156167315
 C          6.1837510508       -0.9131458686        1.0733204284
 C          4.8133146806       -1.0333544099        1.2405768899
 H          4.3734178006       -1.5551182452        2.0744915893
 H          6.8515364344       -1.3608748432        1.7914366661
 H          7.7555121633       -0.1252898571       -0.1432046236
 H          6.2278548208        0.9060995882       -1.7833125801
 H          3.7565511141        0.6839846153       -1.4674757920
 H          2.7462497790       -2.4432562437       -0.7706391615
 H          1.4389151110       -3.9230149529       -2.0743176360
 H         -0.8356185117       -4.6074602501       -2.7339134572
 H         -2.8016975044       -3.6317837620       -1.6323217936
 C         -2.8039189394       -1.7259578912        0.4019379659
 H         -2.8696635313       -2.0966384757        1.4359219510
 C         -4.1392176204       -1.9288256298       -0.2809765787
 C         -4.9753768221       -3.1302886387        0.0398872868
 C         -5.3936035017       -1.7752688517        0.5236294698
 H         -6.2465845696       -1.3008713136        0.0623524668
 H         -5.2817995171       -1.5468536228        1.5738416831
 H         -4.5881801821       -3.8287652046        0.7663160167
 H         -5.5470720119       -3.5874032305       -0.7535374916
 H         -4.1457968663       -1.5520211853       -1.2970277886
 O         -2.2941555733        0.0063196886       -1.8262598707
