  62
        -98.93759394
 C         -1.7131320690       -1.4415390496        0.3005890966
 C         -1.8563364096       -0.2034301781        0.9787167792
 C         -3.1378054608        0.5043383859        0.8213297880
 C         -4.1037272887       -0.0516238685        0.0703303603
 C         -5.5144063459        0.4264321362       -0.1717675587
 C         -5.7372405996        1.9277202289       -0.3863966491
 C         -4.6208154913        2.6381005131       -1.1647116642
 H         -3.9455033602        1.9010703538       -1.6028584597
 H         -5.0644578985        3.2033243864       -1.9863586167
 C         -3.8185287857        3.6130417992       -0.3007659229
 H         -4.5104835487        4.1799166729        0.3258202727
 H         -3.3108203738        4.3252450247       -0.9554677503
 C         -2.7507133731        2.9710361535        0.5832511294
 H         -1.9528259368        2.5659671333       -0.0452641014
 H         -2.3132978931        3.7584163748        1.2022904580
 C         -3.2409541335        1.8392150350        1.5024224812
 H         -2.5708072771        1.7874685972        2.3651405055
 H         -4.2489953662        2.0314221214        1.8619259785
 H         -5.8714965800        2.4192340756        0.5760331337
 H         -6.6810853019        2.0304061819       -0.9248983031
 H         -5.8516337991       -0.1222104168       -1.0547977656
 H         -6.1304832527        0.0903260019        0.6678941867
 O         -3.9178523983       -1.2324600181       -0.5812705352
 C         -2.7295158524       -1.9440184689       -0.5108869321
 O         -2.7324178062       -2.9752919563       -1.2115149660
 H          2.1317351081       -1.2913334624        0.8268330007
 C          1.8709464538       -1.3936941734       -0.2148173658
 C          0.6072520059       -1.8376064113       -0.5743214505
 C          0.3057659731       -1.9842156641       -1.9240033680
 C          1.2520244435       -1.6814782799       -2.8858859017
 C          2.5066082267       -1.2220409018       -2.5243426683
 C          2.8210078298       -1.0800068282       -1.1775850845
 N          4.0962520667       -0.6504960602       -0.7860146817
 S          4.3349080026        0.3520317506        0.5302035569
 O          5.7121733615        0.7746467684        0.4020791352
 O          3.9944942047       -0.3403851066        1.7467312472
 C          3.2564118925        1.7461670762        0.2651461605
 C          3.7020780727        2.7526830586       -0.5713143326
 C          2.8734703702        3.8323072172       -0.8263146759
 C          1.6140240758        3.8872460593       -0.2468485109
 C          1.1838524626        2.8714648785        0.5912537856
 C          2.0082994428        1.7879670742        0.8507661862
 H          1.6774953231        0.9922403609        1.4976885289
 H          0.2071214081        2.8956430196        1.0470266520
 H          0.9659798410        4.7264251517       -0.4455688051
 H          3.2091247909        4.6260362601       -1.4742255972
 H          4.6933308204        2.6795361901       -0.9887345227
 H          4.7120149961       -0.4074848758       -1.5479028301
 H          3.2414119466       -0.9842635546       -3.2782753769
 H          1.0085115685       -1.8003305887       -3.9309484029
 H         -0.6722880826       -2.3415110026       -2.2087154418
 C         -0.3982486310       -2.1729582697        0.5016845712
 H          0.0021166580       -1.7928090968        1.4522284938
 C         -0.5423790012       -3.6781973209        0.6185570228
 C          0.5365781681       -4.4577355479        1.3058125000
 C         -0.8017875665       -4.2914692629        1.9600399307
 H         -1.4608103747       -5.1447219719        2.0167853492
 H         -0.8743540610       -3.6272986298        2.8092337309
 H          0.7998711131       -5.4277011005        0.9127899042
 H          1.3728108558       -3.9078061265        1.7118516749
 H         -1.0244108447       -4.1316128946       -0.2375399700
 O         -0.9516611950        0.2832110655        1.7081438631
