  62
        -98.94904676
 C         -0.8832376415       -1.3587412312        0.2386252615
 C         -1.4373585237       -0.2812779959        0.9667973485
 C         -2.2718849976        0.6517295677        0.1984613497
 C         -2.4010674073        0.4753668740       -1.1293634942
 C         -3.2265744083        1.3468374926       -2.0312037845
 C         -4.6556825720        0.8067315902       -2.1785888581
 C         -5.3269438149        0.4742273764       -0.8460422713
 H         -6.3404721324        0.1338337280       -1.0685634788
 H         -4.8001250829       -0.3632751760       -0.3831099813
 C         -5.3854412015        1.6460138291        0.1437311602
 H         -5.2287197652        2.5861621631       -0.3862704000
 H         -6.3848583703        1.6835664648        0.5820452902
 C         -4.3938889242        1.5453796656        1.3041632571
 H         -4.4814405646        0.5629475917        1.7745270011
 H         -4.6711948143        2.2928392755        2.0521343667
 C         -2.9193282353        1.7805145011        0.9513133379
 H         -2.8171490894        2.7206744458        0.4042990569
 H         -2.3659132885        1.8607495462        1.8913505827
 H         -5.2509536314        1.5481109719       -2.7148953972
 H         -4.6206836253       -0.1027402868       -2.7828291229
 H         -3.2485310915        2.3583679644       -1.6293432848
 H         -2.7480100601        1.3690155058       -3.0122687730
 O         -1.8249074345       -0.5524209492       -1.8020889445
 C         -1.0529826148       -1.4937726249       -1.1399823575
 O         -0.5930894935       -2.3906544538       -1.8727723850
 H          1.3817988285       -0.1707230157        0.3544769677
 C          1.9365459583       -1.0568770435        0.0821156559
 C          1.3884969085       -2.3069211745        0.3420974951
 C          2.1228194034       -3.4360198867        0.0056609653
 C          3.3545093613       -3.3079215318       -0.6137407629
 C          3.8670338352       -2.0625066714       -0.9259768305
 C          3.1459645039       -0.9256012096       -0.5772797670
 N          3.6276701144        0.3593317003       -0.8665231218
 S          2.5528768331        1.5937428779       -1.2168011871
 O          1.3720256105        1.1238232680       -1.9033406975
 O          3.3549749413        2.5654163046       -1.9330712745
 C          2.1341444500        2.2733782993        0.3736295132
 C          3.1500162127        2.4957537899        1.2824912080
 C          2.8385883824        3.0612836430        2.5080943027
 C          1.5260684670        3.4018961824        2.7984864071
 C          0.5193703500        3.1785319504        1.8726444951
 C          0.8231496460        2.6064664890        0.6475187487
 H          0.0655088431        2.3963259786       -0.0925865715
 H         -0.5014786454        3.4400014385        2.0993792953
 H          1.2830724740        3.8425685012        3.7524437650
 H          3.6181956349        3.2351417022        3.2321544489
 H          4.1574211300        2.2215661464        1.0178101311
 H          4.4491716674        0.3897523525       -1.4525069384
 H          4.8112227863       -1.9664787967       -1.4399557866
 H          3.9135141479       -4.1929284326       -0.8776118278
 H          1.7253269590       -4.4161647819        0.2120019516
 C          0.0126556620       -2.3503567786        0.9598693591
 H          0.0831303902       -1.9839574552        1.9950449778
 C         -0.6066396890       -3.7316429506        0.9692557134
 C         -0.3057180314       -4.6878744304        2.0836740958
 C         -1.6570177076       -4.0476093454        1.9902067210
 H         -2.4987978428       -4.6547458634        1.6927007949
 H         -1.9070861490       -3.2718379115        2.6990705010
 H         -0.2214946733       -5.7389709863        1.8522787408
 H          0.3600587706       -4.3518311825        2.8639233444
 H         -0.7424554839       -4.1312794898       -0.0296449935
 O         -1.2374538260       -0.1029719020        2.1991485031
