  62
        -98.93695433
 C         -2.6257247507       -1.2155203457        0.1331917136
 C         -2.6736263810       -0.2198890811       -0.8690271695
 C         -3.8977444910        0.6012810013       -0.9127544333
 C         -4.8832678025        0.3543355867       -0.0323156244
 C         -6.1790289656        1.1009173102        0.1259049516
 C         -6.0448998105        2.2026603708        1.1908543231
 C         -5.5278668712        3.5431328538        0.6699801157
 H         -6.3037654185        4.0151580607        0.0635565181
 H         -5.3556198010        4.1838976826        1.5378445171
 C         -4.2389227681        3.4736728422       -0.1532440709
 H         -3.5325133840        2.7914069424        0.3233587618
 H         -3.7835145134        4.4658453871       -0.1456056489
 C         -4.4754945151        3.0471878799       -1.6097046605
 H         -5.5426337325        3.0946996993       -1.8260018898
 H         -3.9921578422        3.7623614279       -2.2784500254
 C         -3.9339488783        1.6590685397       -1.9818630457
 H         -4.4998303425        1.2724900297       -2.8361454960
 H         -2.8944103309        1.7506259053       -2.3123908381
 H         -5.3804869188        1.8308687619        1.9751947565
 H         -7.0232281170        2.3713253311        1.6454894828
 H         -6.5075507710        1.5100236314       -0.8247626134
 H         -6.9168793202        0.3731967748        0.4701351444
 O         -4.7983145735       -0.6249627956        0.9109821438
 C         -3.6764366258       -1.4235715780        1.0253308640
 O         -3.7306555834       -2.2662629941        1.9442933327
 H          1.0301708090       -2.1715798297       -1.0488425538
 C          0.9906749754       -1.4262171578       -0.2698008765
 C         -0.1674693526       -1.2611908385        0.4721003660
 C         -0.1788468550       -0.2974393224        1.4774307138
 C          0.9306847450        0.4895798577        1.7157767394
 C          2.0796666502        0.3335348426        0.9594703916
 C          2.1081596641       -0.6331352441       -0.0349106220
 N          3.2661996074       -0.7951426183       -0.8106671404
 S          4.7612034071       -0.8538706430       -0.0561857520
 O          5.6135292754       -1.5830020299       -0.9697980465
 O          4.6575831060       -1.3816402307        1.2843902338
 C          5.2872557848        0.8463988585       -0.0061375941
 C          5.6656715960        1.4148821929        1.1942314351
 C          6.0836991021        2.7365352157        1.2079554590
 C          6.1167707519        3.4619508464        0.0269706031
 C          5.7360973062        2.8754229159       -1.1708902496
 C          5.3180489121        1.5545181376       -1.1914306986
 H          5.0172014943        1.0629383739       -2.1015300609
 H          5.7629014402        3.4429313155       -2.0871948396
 H          6.4415996175        4.4904048473        0.0399174549
 H          6.3806486461        3.1940883788        2.1380080287
 H          5.6192783299        0.8140554847        2.0886892953
 H          3.1876762636       -1.4983213712       -1.5305303367
 H          2.9473844866        0.9471341674        1.1379608293
 H          0.9021368936        1.2352753524        2.4959853986
 H         -1.0763351369       -0.1737962635        2.0690706967
 C         -1.4017377597       -2.1038978674        0.2592702162
 H         -1.5574088815       -2.7088318333        1.1648405347
 C         -1.3126232259       -3.0323591466       -0.9341016604
 C         -0.6418923325       -4.3663056977       -0.8053025379
 C         -2.1326591466       -4.2858750955       -0.9358621442
 H         -2.5880265963       -4.6034599631       -1.8618574934
 H         -2.7368251070       -4.4834023427       -0.0622306262
 H         -0.2303919185       -4.6287403999        0.1578911466
 H         -0.0756944002       -4.7445794246       -1.6435191880
 H         -1.2172465762       -2.4970333407       -1.8720798826
 O         -1.7386023371       -0.0191840642       -1.6878604362
