  62
        -98.93778043
 C         -1.4650503096       -1.6555824325       -0.1467786942
 C         -1.3732848322       -0.2439755340       -0.1988293156
 C         -2.6468704140        0.4914543306       -0.3442808690
 C         -3.8087608167       -0.1853372410       -0.3730139632
 C         -5.2367130706        0.2878057791       -0.5500732313
 C         -5.5895796198        1.7675639941       -0.4239590168
 C         -5.4417718579        2.3432958414        0.9843811820
 H         -5.6128467905        3.4207476867        0.9326105122
 H         -6.2221672575        1.9136526748        1.6177371494
 C         -4.1009820993        2.0845229244        1.6673831872
 H         -3.9619406613        1.0103986856        1.8063926592
 H         -4.1420731665        2.5339310293        2.6633890041
 C         -2.8794342666        2.6547484463        0.9494816924
 H         -2.0192869564        2.5280493296        1.6122191810
 H         -3.0200026400        3.7240484692        0.7809347372
 C         -2.5284981077        1.9874893663       -0.3908901833
 H         -3.1227929792        2.3957701923       -1.2046731409
 H         -1.4773809870        2.2000712077       -0.6055098515
 H         -5.0176624308        2.3524646316       -1.1381278905
 H         -6.6410846012        1.8613903148       -0.7091080361
 H         -5.5419715134       -0.0570687073       -1.5443950832
 H         -5.8318045429       -0.2851109106        0.1683582481
 O         -3.8478732657       -1.5480129121       -0.2754814721
 C         -2.6987263850       -2.3077763130       -0.1521068298
 O         -2.9059955467       -3.5335894850       -0.0472592628
 O         -0.2916622381        0.3919788501       -0.1373550832
 C         -0.2308701952       -2.5314300003       -0.0146849671
 C          0.7089485846       -1.9391305930        1.0051305828
 C          0.3158419767       -1.9083824748        2.3404947104
 C          1.1319782861       -1.3480435466        3.3039585325
 C          2.3533748410       -0.7996316770        2.9544702056
 C          2.7548053687       -0.8274841889        1.6242414094
 C          1.9395367018       -1.4039186941        0.6607475784
 H          2.2703858989       -1.4045382600       -0.3634831192
 N          3.9936066590       -0.2925085235        1.2460177791
 S          4.2329675086        0.4000741423       -0.2513637912
 O          4.2851250252       -0.6203449039       -1.2692620826
 O          5.4491147496        1.1706549519       -0.0824854916
 C          2.8830626675        1.5232691747       -0.5585419172
 C          2.2539260783        1.5007708986       -1.7844326135
 C          1.2629166761        2.4313397756       -2.0474145770
 C          0.9187112953        3.3631688844       -1.0822548634
 C          1.5538371052        3.3666224293        0.1493348510
 C          2.5485359849        2.4415070849        0.4153911410
 H          3.0633986665        2.4275649995        1.3626283419
 H          1.2728907961        4.0852534119        0.9028917454
 H          0.1471701883        4.0889103269       -1.2892337220
 H          0.7572776184        2.4199290467       -3.0004515549
 H          2.5456105485        0.7538505138       -2.5055468464
 H          4.4913848458        0.1991806705        1.9728520035
 H          2.9902177383       -0.3537351443        3.7033205377
 H          0.8126835115       -1.3297456231        4.3352420617
 H         -0.6465920606       -2.3224410093        2.6106914063
 H         -0.6006487065       -3.4925098541        0.3796019492
 C          0.4523874808       -2.8369631786       -1.3392066725
 C         -0.3405002461       -2.9866587321       -2.6020399553
 C          0.5816005493       -1.8187762772       -2.4301774135
 H          1.5008031670       -1.7991054488       -2.9984652558
 H          0.1532997254       -0.8440101525       -2.2575718202
 H         -0.0626009944       -3.7684954430       -3.2928093051
 H         -1.4051848024       -2.8112763846       -2.5463267309
 H          1.2883018366       -3.5193433092       -1.2137906748
