  62
        -98.93692763
 C         -2.5278503542       -1.4402659750        0.1221134225
 C         -2.5337257704       -0.3833009179       -0.8194368540
 C         -3.4932101445        0.7018157256       -0.5628294883
 C         -4.3052558090        0.6421016966        0.5071050095
 C         -5.3666689174        1.6386227873        0.8905291087
 C         -4.8667538314        3.0406947735        1.2894689076
 C         -4.8543927357        4.0579902872        0.1418447297
 H         -5.5805809422        3.7481671410       -0.6105970615
 H         -5.1918695715        5.0231109548        0.5249009865
 C         -3.4963230815        4.2950903821       -0.5262692878
 H         -3.6724683496        4.8309144210       -1.4615772145
 H         -2.8906556005        4.9415705183        0.1130419498
 C         -2.6678239942        3.0443213507       -0.8225920959
 H         -2.2182119194        2.6717178473        0.1017493179
 H         -1.8342126544        3.3307658275       -1.4679991608
 C         -3.4542144240        1.8915954209       -1.4771827361
 H         -4.4624424807        2.2115451701       -1.7358351870
 H         -2.9489764832        1.5697650572       -2.3900531852
 H         -5.5421832740        3.4090788093        2.0631386980
 H         -3.8762711992        2.9600177498        1.7369700308
 H         -6.0781664682        1.7285224998        0.0667562807
 H         -5.8908338380        1.1927272634        1.7381390173
 O         -4.2769674486       -0.3990191175        1.3826506823
 C         -3.3811348923       -1.4412273240        1.2297604395
 O         -3.4462025916       -2.3057978805        2.1259631327
 H          0.3170389809       -1.4312984076       -1.5760301148
 C          0.6453155663       -1.5125222738       -0.5518412024
 C         -0.1824615186       -2.1063687281        0.3888379050
 C          0.2443603210       -2.1600634789        1.7122979061
 C          1.4697887671       -1.6352404026        2.0796314331
 C          2.2892923764       -1.0354161436        1.1390899548
 C          1.8638249296       -0.9613687773       -0.1799982044
 N          2.6777428598       -0.3310072690       -1.1392570430
 S          3.2417070813        1.2092468954       -0.7746573648
 O          2.3590648835        1.9029723926        0.1352342847
 O          3.4777853395        1.8432656701       -2.0536786040
 C          4.8112042982        0.9009193325        0.0100573981
 C          5.0824169666        1.4452874718        1.2499325722
 C          6.3140402074        1.1973411096        1.8362307960
 C          7.2478042045        0.4142139159        1.1753159428
 C          6.9611042712       -0.1228084391       -0.0710017693
 C          5.7325996824        0.1224759739       -0.6630078367
 H          5.4712338337       -0.2730662771       -1.6301697123
 H          7.6897803372       -0.7313588218       -0.5818077361
 H          8.2045653437        0.2214707141        1.6343660533
 H          6.5383618576        1.6144600188        2.8048535315
 H          4.3228624158        2.0424905587        1.7291241646
 H          2.2736310098       -0.3422519427       -2.0655488018
 H          3.2397162091       -0.6122222378        1.4208271142
 H          1.7890419902       -1.6883775319        3.1094503878
 H         -0.4070753877       -2.6019789366        2.4533030383
 C         -1.5582470382       -2.6096986259        0.0242334263
 H         -1.8730075864       -3.3224502783        0.7975739653
 C         -1.6118674185       -3.3020322870       -1.3219426352
 C         -0.9815227195       -4.6533187068       -1.4688820508
 C         -2.4735457148       -4.5163596522       -1.4850395184
 H         -2.9956738955       -4.6546153814       -2.4199622332
 H         -3.0279278527       -4.8555835137       -0.6221010836
 H         -0.5220506458       -5.0855752730       -0.5929413189
 H         -0.4767254295       -4.8892469311       -2.3930706771
 H         -1.5561086084       -2.6229255591       -2.1625482065
 O         -1.7946806560       -0.3341528589       -1.8388934028
