  62
        -98.93419218
 C          2.0010547822        1.3708430449        0.3707123056
 C          2.4872910325        0.5984791655       -0.7120794412
 C          3.6872961701       -0.2167024983       -0.4428681348
 C          4.2423456632       -0.2031339693        0.7801236089
 C          5.4816947469       -0.9183429223        1.2562718673
 C          5.6562409017       -2.3844613469        0.8346763516
 C          4.3497110810       -3.1753344329        0.6726796067
 H          4.4281871653       -4.1084175797        1.2339457189
 H          3.5146804558       -2.6125985346        1.0940508372
 C          4.0422637966       -3.5302503984       -0.7844175063
 H          3.3433259562       -4.3701849941       -0.8011895980
 H          4.9648931994       -3.8640826120       -1.2643415217
 C          3.4217331018       -2.4103536071       -1.6193586349
 H          2.3936354740       -2.2286148303       -1.2928397149
 H          3.3685191786       -2.7540795878       -2.6551966012
 C          4.1674689662       -1.0662483992       -1.5838855408
 H          5.2443046673       -1.2135917489       -1.5522731917
 H          3.9154396134       -0.5202425871       -2.4969894035
 H          6.2151411228       -2.4313261414       -0.0989146968
 H          6.2767072766       -2.8600684779        1.5960674232
 H          6.3535324105       -0.3455884981        0.9272880493
 H          5.4459845834       -0.8528345940        2.3463966079
 O          3.7239919927        0.5349338073        1.8027092404
 C          2.5911998309        1.3128320672        1.6342183959
 O          2.2071949996        1.8882977712        2.6725836224
 H         -0.2320154223       -0.1060985400        0.9786281031
 C         -0.7173265081        0.2426687816        0.0743409534
 C         -0.3250959248        1.4583801587       -0.4747348748
 C         -0.9571573185        1.8962503267       -1.6300920231
 C         -1.9343269154        1.1208747088       -2.2308911666
 C         -2.3055391138       -0.0975673157       -1.6946681188
 C         -1.6874774897       -0.5397832558       -0.5312579481
 N         -2.0621505498       -1.7735926938        0.0275033155
 S         -3.6934179714       -2.1318080844        0.1226671029
 O         -3.8158818072       -3.0378718545        1.2434249309
 O         -4.1564461943       -2.6359707952       -1.1460742789
 C         -4.4940301609       -0.5785130631        0.4828763572
 C         -5.4101910507       -0.0514232948       -0.4041082016
 C         -5.9941887746        1.1719502230       -0.1164280690
 C         -5.6502501479        1.8450722875        1.0453077054
 C         -4.7304999113        1.3005419185        1.9287639649
 C         -4.1453154986        0.0770455252        1.6471618391
 H         -3.4309761060       -0.3755315891        2.3165031445
 H         -4.4640913869        1.8249646146        2.8324859866
 H         -6.1012754406        2.7995100588        1.2662774974
 H         -6.7113438529        1.5967282032       -0.8000537404
 H         -5.6465815062       -0.6073241604       -1.2966988247
 H         -1.5837845023       -2.0011141078        0.8861064909
 H         -3.0475812112       -0.7221227219       -2.1649936024
 H         -2.4075350022        1.4671163056       -3.1369446853
 H         -0.6650720715        2.8307581567       -2.0792050292
 C          0.7560591838        2.2319046729        0.2406058179
 H          0.4183231642        2.3958968541        1.2776351627
 C          1.0079977483        3.6104080342       -0.3516502942
 C          2.3432564313        4.2772505019       -0.2131281159
 C          1.8701918530        3.8198084140       -1.5585977508
 H          1.5723657772        4.5697101071       -2.2769326545
 H          2.3298465657        2.9503220603       -2.0003699108
 H          3.1340316179        3.7213255019        0.2698617186
 H          2.3675542904        5.3367286319       -0.0063762446
 H          0.1406488813        4.2558944451       -0.2542233975
 O          1.9631307066        0.5836149779       -1.8542184197
