  62
        -98.94088572
 C         -1.8542430770       -0.7347537194        0.5587060975
 C         -2.3116147895        0.0151408129       -0.5535037914
 C         -3.4437330619        0.9160373849       -0.2893070529
 C         -3.9266628529        1.0455794184        0.9585988656
 C         -5.0639924993        1.9340816028        1.3834504521
 C         -6.4515007472        1.3126468442        1.1723980602
 C         -6.9121965238        1.2279129701       -0.2833815595
 H         -7.9753116150        0.9796891835       -0.2682373528
 H         -6.8136750047        2.2076965781       -0.7519034147
 C         -6.1724251274        0.1770400539       -1.1230839315
 H         -5.6625446391       -0.5259866855       -0.4602892849
 H         -6.8955696093       -0.3995304834       -1.7041716429
 C         -5.1563468714        0.7538559587       -2.1090856980
 H         -4.6686264908       -0.0774691550       -2.6246443912
 H         -5.6743333662        1.3557867149       -2.8589264214
 C         -4.0652343924        1.6156663411       -1.4600163410
 H         -3.2782976409        1.7893553725       -2.1983596746
 H         -4.4769925856        2.5776977584       -1.1553594765
 H         -6.4584067908        0.3140779148        1.6156970075
 H         -7.1693208097        1.9249983622        1.7230323792
 H         -4.9296408254        2.1225991716        2.4509105326
 H         -5.0048602289        2.8850085470        0.8530191449
 O         -3.3981592802        0.3754490490        2.0176512812
 C         -2.3674027999       -0.5344479819        1.8425154518
 O         -1.9863211965       -1.0814100698        2.8974203232
 O         -1.8148984398       -0.0516313814       -1.7061155114
 C         -0.7230126819       -1.7408467695        0.4315917978
 C          0.4156562383       -1.1368122655       -0.3535677771
 C          0.9299840533       -1.6851673769       -1.5201877413
 C          1.9731539293       -1.0636597480       -2.1852284488
 C          2.5287227874        0.1060239861       -1.7020934733
 C          2.0291935330        0.6566412623       -0.5280242482
 C          0.9901182712        0.0288819084        0.1404348335
 H          0.5968222573        0.4622654364        1.0525539394
 N          2.5918592228        1.8403460202       -0.0220889745
 S          4.2573211888        1.9912054923       -0.0244288298
 O          4.5556452041        2.8953369845        1.0645653601
 O          4.7074453792        2.4099047310       -1.3286365624
 C          4.8799825923        0.3572153375        0.3316221575
 C          5.6848028266       -0.2894235701       -0.5838468908
 C          6.1320587991       -1.5692922934       -0.2969060689
 C          5.7656976958       -2.1780404351        0.8931401158
 C          4.9595892834       -1.5135551302        1.8050107947
 C          4.5109904523       -0.2334808467        1.5240194472
 H          3.8872807938        0.3114236974        2.2147524066
 H          4.6757048816       -1.9879636726        2.7307633027
 H          6.1101132411       -3.1759941560        1.1137964062
 H          6.7605992146       -2.0874653918       -1.0029483480
 H          5.9432952052        0.2200471886       -1.4977896825
 H          2.1925069734        2.1485568210        0.8515416852
 H          3.3255196960        0.6123775703       -2.2222966610
 H          2.3539246229       -1.4926604124       -3.0994020266
 H          0.4955617752       -2.5830987228       -1.9269240463
 H         -0.3688142975       -1.8982902027        1.4638811061
 C         -1.1607430830       -3.1033372055       -0.0854948881
 C         -2.5565387835       -3.6008848952        0.1412092614
 C         -2.0980641128       -3.2608368340       -1.2433923480
 H         -1.9238911515       -4.0707870705       -1.9367055040
 H         -2.4746960295       -2.3635435040       -1.7074578932
 H         -2.6953967567       -4.6399304398        0.3998284016
 H         -3.2527613200       -2.9342640711        0.6298756350
 H         -0.3705733290       -3.8420979417        0.0051619688
