  62
        -98.93439672
 C          2.3316213748       -0.6246853716        0.1065682880
 C          3.4865127989       -0.9681421424       -0.6305358202
 C          4.7799414642       -0.4854083383       -0.1092983676
 C          4.7884630714        0.2378069459        1.0262587386
 C          5.9686080827        0.8668357191        1.7178290817
 C          6.4584741425        2.1415530676        1.0112075752
 C          6.5411416345        2.0434137721       -0.5099180399
 H          5.5590015350        1.7780811926       -0.9055146381
 H          6.7869358858        3.0371104397       -0.8937096832
 C          7.5850922309        1.0657115589       -1.0440916412
 H          7.5903594350        1.1598034136       -2.1330768277
 H          8.5717419127        1.3616381730       -0.6807312986
 C          7.3616411942       -0.4073368088       -0.6962905379
 H          7.6498521978       -0.6158678669        0.3304223984
 H          8.0293799434       -0.9965615171       -1.3316822949
 C          5.9488624435       -0.9182367496       -0.9615670114
 H          5.9592781773       -2.0138125630       -0.9103797527
 H          5.6704970670       -0.6827028020       -1.9951583743
 H          7.4372814353        2.4053572747        1.4150967755
 H          5.7635969020        2.9490579156        1.2542520459
 H          5.6365220938        1.1328440606        2.7236741500
 H          6.7725378844        0.1433455614        1.8149845800
 O          3.6457578870        0.5414037337        1.7075907692
 C          2.3989281432        0.1267668318        1.2786492684
 O          1.4548117280        0.4819104534        2.0099302189
 O          3.4452594573       -1.6449211407       -1.6945444801
 C          0.9773342520       -1.0992435892       -0.3827602338
 C          0.0436359824        0.0655783109       -0.6006530000
 C          0.5042652794        1.1882263230       -1.2847043862
 C         -0.3282335183        2.2649797490       -1.5182752596
 C         -1.6455094391        2.2394501800       -1.0945438356
 C         -2.1173339078        1.1229852461       -0.4159684438
 C         -1.2733964554        0.0479006078       -0.1710194782
 H         -1.6685591472       -0.8028302742        0.3580842477
 N         -3.4433498582        1.0688479321        0.0425898579
 S         -4.2401860018       -0.4197007593        0.0179174887
 O         -3.9164964663       -1.1472790641        1.2189685009
 O         -3.9815368084       -1.0994784285       -1.2312955093
 C         -5.9380875946        0.1231761220        0.0851273399
 C         -6.6682268935        0.2146360559       -1.0848701899
 C         -7.9785107734        0.6625709721       -1.0241381606
 C         -8.5323108809        1.0124519610        0.1981322881
 C         -7.7870799623        0.9153232735        1.3640326116
 C         -6.4769391508        0.4668992097        1.3107353162
 H         -5.8623578950        0.3660960336        2.1902096897
 H         -8.2220717045        1.1857867805        2.3126293402
 H         -9.5522118877        1.3603621372        0.2431464670
 H         -8.5614160251        0.7360200469       -1.9280683821
 H         -6.1987904218       -0.0767903223       -2.0106706097
 H         -4.0206336166        1.8098280919       -0.3307756021
 H         -2.2980428193        3.0787216314       -1.2815539006
 H          0.0478588279        3.1298834184       -2.0440639845
 H          1.5300102140        1.2049053655       -1.6279637798
 H          1.1659410267       -1.5696278268       -1.3603932318
 C          0.4199330578       -2.1477809309        0.5570740803
 C         -0.5096320222       -3.2061232555        0.0456842732
 C          0.8922446156       -3.5643188332        0.4352034382
 H          1.0478899700       -4.1359021260        1.3377982080
 H          1.6009112625       -3.7830166905       -0.3502489350
 H         -1.3240287302       -3.5244360541        0.6798794638
 H         -0.7602550364       -3.1862149757       -1.0045928596
 H          0.2490014248       -1.7606622058        1.5562618135
