  62
        -98.93894253
 C         -1.7863946913       -0.4116653201       -0.4769698312
 C         -2.8289429461       -1.2161689189        0.0365895799
 C         -4.2030028899       -0.7240128554       -0.1633709693
 C         -4.3983909751        0.4447367485       -0.8024201289
 C         -5.6724606028        1.1690543415       -1.1851616069
 C         -7.0118711010        0.7767605658       -0.5666637822
 C         -7.1360972971        1.0674530767        0.9285127087
 H         -7.1646350226        2.1507651278        1.0705712468
 H         -8.0882077822        0.6613574364        1.2770768684
 C         -6.0114928919        0.5180263822        1.8025280122
 H         -6.2262235376        0.7976109444        2.8375851197
 H         -5.0685120396        0.9965265588        1.5298484604
 C         -5.8308765614       -0.9980931208        1.7583837042
 H         -5.1162235697       -1.2667895622        2.5408970356
 H         -6.7786379272       -1.4880035788        1.9895772597
 C         -5.2967594846       -1.5641293087        0.4309004767
 H         -4.8535617848       -2.5430157176        0.6356206509
 H         -6.0992445008       -1.7134825507       -0.2873955594
 H         -7.7756763120        1.3660958037       -1.0813977574
 H         -7.2302634597       -0.2671522787       -0.7712430839
 H         -5.7527426671        1.0719772396       -2.2736147653
 H         -5.4825236428        2.2284552107       -0.9852997044
 O         -3.3568615855        1.1869036019       -1.2824195938
 C         -2.0373755218        0.7919863310       -1.1321683041
 O         -1.2068498604        1.5846734202       -1.6151983409
 O         -2.6229150251       -2.3049511988        0.6371365970
 C         -0.3491593585       -0.8711927161       -0.3088461647
 C          0.4374358160        0.1670493584        0.4503096618
 C         -0.0626115445        0.6177353708        1.6707231046
 C          0.6024248016        1.5870334424        2.3939500186
 C          1.7902961883        2.1197637691        1.9232936691
 C          2.3035109207        1.6705631206        0.7134118798
 C          1.6333341651        0.6924353395       -0.0116898020
 H          2.0462941527        0.3772696671       -0.9550210162
 N          3.5026384947        2.1956659614        0.2144284872
 S          4.5663650689        1.2417759704       -0.6410546421
 O          5.8421682410        1.9110415318       -0.4964761620
 O          4.1118694440        1.0516495223       -1.9954548913
 C          4.6062130037       -0.3263942162        0.2116862479
 C          4.5399719392       -1.4918632560       -0.5229444448
 C          4.5833517024       -2.7089734942        0.1384976122
 C          4.6899313109       -2.7388306623        1.5198807211
 C          4.7613145109       -1.5590243409        2.2448502675
 C          4.7231682468       -0.3401101169        1.5877735643
 H          4.7839771331        0.5899966316        2.1284672206
 H          4.8460063479       -1.5854585531        3.3192563922
 H          4.7179372667       -3.6864489646        2.0342700779
 H          4.5302887708       -3.6262425939       -0.4259941991
 H          4.4503008435       -1.4223632620       -1.5947846499
 H          3.9735629833        2.8527364460        0.8177599050
 H          2.3082195603        2.8852333150        2.4807880000
 H          0.1963443250        1.9318715205        3.3328950034
 H         -0.9917278734        0.2026244403        2.0367571579
 H         -0.4042748644       -1.7803866468        0.3081491090
 C          0.2436065311       -1.2321994271       -1.6536906434
 C          1.3291471439       -2.2602180990       -1.7495873287
 C         -0.0521298853       -2.5822888136       -2.2328340490
 H         -0.2240846093       -2.6613311636       -3.2958476670
 H         -0.6597669811       -3.2512432491       -1.6411476722
 H          2.1062331818       -2.1137268184       -2.4844076933
 H          1.6672130183       -2.7163399277       -0.8316147015
 H          0.2739516234       -0.3907283590       -2.3376676225
