  62
        -98.94518479
 C          2.4520048105        1.1815855230       -0.0696768780
 C          3.5570364538        0.8646400236        0.7601893197
 C          4.4928625903       -0.1330556704        0.2323438266
 C          4.2680285267       -0.6854920851       -0.9736653487
 C          5.1414033969       -1.7020243727       -1.6577700181
 C          4.8785622026       -3.1488874897       -1.2179994410
 C          5.3738549445       -3.5029185356        0.1848295136
 H          5.3237816725       -4.5896949033        0.2766490580
 H          6.4213030896       -3.2157698741        0.2820162844
 C          4.5572332173       -2.8737478174        1.3223157428
 H          4.3447087533       -3.6313769461        2.0799705980
 H          3.5943007793       -2.5325374248        0.9342880759
 C          5.2487028045       -1.7076873656        2.0287992275
 H          4.5676986633       -1.3155053394        2.7882183779
 H          6.1472666974       -2.0670757370        2.5350441263
 C          5.6409826233       -0.5503925517        1.1011017895
 H          5.9173915897        0.3065371722        1.7201415699
 H          6.4978904666       -0.8319204640        0.4896806511
 H          3.8058261914       -3.3453182994       -1.2867185584
 H          5.3820606530       -3.8029124990       -1.9337473067
 H          6.1902878136       -1.4547599716       -1.4914233966
 H          4.9303623940       -1.6237556199       -2.7264807989
 O          3.1965513812       -0.3537998373       -1.7416007623
 C          2.2552722282        0.5696382023       -1.3075100011
 O          1.3227559719        0.7564702781       -2.1138218565
 O          3.7535381519        1.3958072625        1.8849512829
 C          1.4425065698        2.1963608456        0.4417904200
 C          0.1450238002        1.4773658611        0.7143059819
 C          0.0151211016        0.7354463741        1.8856633752
 C         -1.1355688493        0.0141147121        2.1399200592
 C         -2.1780377796        0.0086837892        1.2286414766
 C         -2.0498129821        0.7286047026        0.0492668239
 C         -0.9009439271        1.4709310897       -0.1942009047
 H         -0.8115278799        2.0166782847       -1.1199774926
 N         -3.0966169357        0.7260632108       -0.8875212103
 S         -3.8447413042       -0.7283423509       -1.2603798571
 O         -2.9548285350       -1.8547951712       -1.0974106545
 O         -4.4053156188       -0.5359507917       -2.5803566134
 C         -5.1766043649       -0.8242350166       -0.0800515187
 C         -6.0224470215        0.2613802739        0.0380764661
 C         -7.0690801418        0.1989885061        0.9439818525
 C         -7.2541935836       -0.9424967827        1.7098156143
 C         -6.3992008739       -2.0256404805        1.5766608182
 C         -5.3493132027       -1.9690111361        0.6729947523
 H         -4.6555778793       -2.7841646278        0.5403132601
 H         -6.5443272178       -2.9126644648        2.1722178634
 H         -8.0690519562       -0.9881706352        2.4149410720
 H         -7.7356010321        1.0396536411        1.0505436327
 H         -5.8458639492        1.1282846572       -0.5763030588
 H         -2.8818242494        1.2417073347       -1.7290279918
 H         -3.0737013759       -0.5610003805        1.4147383643
 H         -1.2238711695       -0.5524257042        3.0545035982
 H          0.8367837262        0.7237922502        2.5883660287
 H          1.8469393728        2.5465441978        1.4011373985
 C          1.3073649298        3.3814354697       -0.4906826723
 C          0.6377228949        4.6288154683        0.0010970252
 C          2.1182353723        4.6136235633       -0.2289127297
 H          2.5160609957        5.1562114129       -1.0734067524
 H          2.7704376993        4.6080333120        0.6319645124
 H          0.0166970805        5.1857657806       -0.6837238153
 H          0.2828180129        4.6322274962        1.0204403215
 H          1.1607698383        3.0989775108       -1.5263937698
