  62
        -98.93485182
 C          2.1886868286       -0.7311261062       -0.7555766965
 C          2.5549351801       -0.4046868215        0.5748750132
 C          3.3900332851        0.7968317311        0.7266499347
 C          3.6961539450        1.5474877719       -0.3452080042
 C          4.5173201591        2.8082709523       -0.3432092067
 C          6.0326878446        2.5666230383       -0.3818966545
 C          6.6404405587        2.0331282165        0.9160522595
 H          7.7245986068        2.1195228260        0.8203225664
 H          6.3351668817        2.6701369208        1.7467335463
 C          6.2871422125        0.5721041163        1.2276407532
 H          5.9137746359        0.0869310024        0.3229139906
 H          7.1896723506        0.0359513441        1.5292835121
 C          5.2588278096        0.3927624323        2.3444934134
 H          5.0550762401       -0.6752283038        2.4542505104
 H          5.6742178080        0.7558640518        3.2870604753
 C          3.9238641541        1.1059211590        2.0928097339
 H          4.0404444312        2.1818428248        2.2214882757
 H          3.1957576511        0.7430829012        2.8223364286
 H          6.2551751956        1.8769830050       -1.1994703211
 H          6.5079443284        3.5222881518       -0.6149238332
 H          4.2645728413        3.4082486638        0.5316153487
 H          4.2334937267        3.3650409374       -1.2390759814
 O          3.2552111924        1.2443692530       -1.5962706011
 C          2.5083018024        0.1032558826       -1.8292752546
 O          2.1846113473       -0.0549125990       -3.0263228425
 O          2.2162329429       -1.0613387750        1.5889899454
 C          1.3506963777       -1.9611189207       -1.0928867409
 C         -0.0010142732       -1.7971869053       -0.4417936457
 C         -0.3780540295       -2.2766534669        0.8064385753
 C         -1.6304317081       -1.9863017938        1.3222078403
 C         -2.5327223362       -1.2093542661        0.6204415258
 C         -2.1617250416       -0.7044519639       -0.6186109335
 C         -0.9134474044       -1.0073374488       -1.1371785118
 H         -0.6246157947       -0.5990702303       -2.0985615173
 N         -3.0643361436        0.1018931051       -1.3398287556
 S         -3.6604069201        1.4631458129       -0.5518462616
 O         -4.0101498410        2.3903373955       -1.6063705723
 O         -2.7337889632        1.9438777010        0.4476561594
 C         -5.1535522896        0.8789999079        0.2229720355
 C         -6.1294373819        0.3251682905       -0.5825461723
 C         -7.2979364933       -0.1352421327        0.0028029264
 C         -7.4711788358       -0.0315830268        1.3751121215
 C         -6.4837936332        0.5310601642        2.1693515072
 C         -5.3116591223        0.9924527946        1.5902511769
 H         -4.5135031888        1.4313666123        2.1677422094
 H         -6.6201927873        0.6115170866        3.2358481957
 H         -8.3812999490       -0.3911750338        1.8285490318
 H         -8.0681999692       -0.5728407654       -0.6115255034
 H         -5.9562407221        0.2683369504       -1.6441760217
 H         -2.7234604563        0.3570016633       -2.2563177293
 H         -3.5050949928       -0.9800109762        1.0245519757
 H         -1.9028397688       -2.3693099382        2.2939647239
 H          0.3108504016       -2.8463996618        1.4028904687
 H          1.1773270255       -1.8778108889       -2.1770463504
 C          2.1341857381       -3.2557756215       -0.9254586740
 C          2.5332550418       -3.8976105874        0.3678340829
 C          1.5140165368       -4.5566147876       -0.5112444536
 H          1.8023232575       -5.4498941372       -1.0451967828
 H          0.4814963991       -4.5445972233       -0.2002647523
 H          3.5219867472       -4.3325625853        0.4153955724
 H          2.2333417046       -3.4288637977        1.2895775692
 H          2.8835381337       -3.3197710600       -1.7118540690
