  62
        -98.93324562
 C         -2.0059593606       -1.1164871699       -0.2829788299
 C         -2.5874429905       -0.4511381795        0.8238846499
 C         -2.9795724300        0.9546776106        0.6394826697
 C         -2.7339491696        1.5526493704       -0.5406125403
 C         -2.9557605291        2.9796531504       -0.9980109505
 C         -3.8792711489        3.9139731508       -0.2197518407
 C         -5.3551699790        3.5182059313       -0.2369583609
 H         -5.8983507688        4.2036478916        0.4171578790
 H         -5.7389293888        3.6505132313       -1.2515821909
 C         -5.6572876095        2.0831733015        0.1871700393
 H         -6.7403409996        1.9415674218        0.1391500491
 H         -5.2099619097        1.3882091812       -0.5265147306
 C         -5.2013159199        1.7077820915        1.5960387494
 H         -5.6260235602        0.7275529417        1.8278144994
 H         -5.6014736597        2.4247483917        2.3152809492
 C         -3.6782267399        1.6083943310        1.7967621796
 H         -3.4908542502        0.9702896210        2.6652668797
 H         -3.2395732596        2.5811046608        2.0073881495
 H         -3.7950530585        4.8964887407       -0.6922334408
 H         -3.5269782989        4.0243210308        0.8015499993
 H         -1.9579361889        3.4315277800       -1.0405344204
 H         -3.3060707990        2.9085880104       -2.0328019405
 O         -2.1450141297        0.8831154800       -1.5727235602
 C         -1.7674117902       -0.4519616401       -1.4851193999
 O         -1.2700833202       -0.8943945704       -2.5365106298
 O         -2.7783918008       -1.0203621493        1.9337046400
 C         -1.5901903111       -2.5581341000       -0.0521833097
 C         -0.2402457912       -2.5981431504        0.6198844505
 C         -0.0088100617       -3.4325512103        1.7071796906
 C          1.2242698583       -3.4445393107        2.3345460008
 C          2.2413202486       -2.6152766011        1.8993263008
 C          2.0210364090       -1.7792626911        0.8094761407
 C          0.7901315591       -1.7837585708        0.1708665705
 H          0.6331183594       -1.1277729708       -0.6732384496
 N          3.0410237094       -0.9408886615        0.3324940507
 S          2.6150953800        0.5636980985       -0.3077447695
 O          1.5875922701        1.1773429690        0.5045169503
 O          2.3285028901        0.4084459485       -1.7110097395
 C          4.1630259903        1.4284836480       -0.1095728594
 C          5.1524934403        1.2397933376       -1.0561940093
 C          6.3735934505        1.8722389672       -0.8845261192
 C          6.5843983207        2.6777265472        0.2248899807
 C          5.5811054506        2.8602446977        1.1647347206
 C          4.3578455704        2.2291615781        0.9999086305
 H          3.5459698904        2.3462467884        1.6998557104
 H          5.7462987907        3.4898200777        2.0241111605
 H          7.5356850308        3.1685103669        0.3564466208
 H          7.1542659006        1.7348655168       -1.6151103191
 H          4.9375584402        0.6118412475       -1.9051234692
 H          3.8228163393       -0.8693473417        0.9696683808
 H          3.1987018185       -2.6104237213        2.3975811709
 H          1.3903530379       -4.0942397406        3.1802476209
 H         -0.8107537419       -4.0568874600        2.0725977006
 H         -2.3224938014       -2.9561263996        0.6698229503
 C         -1.6566218613       -3.4339269701       -1.2933355496
 C         -0.4458046513       -3.8605888606       -2.0615930094
 C         -1.1944723818       -4.8602534403       -1.2352139894
 H         -1.7810087020       -5.6124763901       -1.7401998693
 H         -0.7302024720       -5.1968766203       -0.3208032793
 H         -0.5266760612       -3.8995490807       -3.1370120994
 H          0.5192536887       -3.5232698809       -1.7159694693
 H         -2.5471359011       -3.2324223499       -1.8798366397
