  62
        -98.94100932
 C         -2.0592345227       -0.7424088917       -0.4441844247
 C         -3.1920423781       -1.2818432361        0.2194381569
 C         -4.4647486056       -0.5782115600        0.0170381846
 C         -4.4883012157        0.5259067498       -0.7508486349
 C         -5.7012749991        1.3748315035       -0.9958217243
 C         -5.8098800903        2.5004929097        0.0422870459
 C         -5.6567401625        2.0256004426        1.4873162926
 H         -5.7822053859        2.8988501374        2.1311735057
 H         -4.6375450988        1.6614948223        1.6363721314
 C         -6.6515644357        0.9339478232        1.9060173172
 H         -7.4910402497        0.9111434221        1.2101477918
 H         -7.0532703654        1.1852843051        2.8899110929
 C         -6.0468054202       -0.4668713262        2.0165281947
 H         -6.7705906207       -1.1106049534        2.5234351055
 H         -5.1495710725       -0.4302477609        2.6394354584
 C         -5.6843285035       -1.1439590771        0.6887882428
 H         -6.5430803494       -1.1153117327        0.0148800069
 H         -5.4504608830       -2.1907657492        0.9039419548
 H         -6.7770425112        2.9913552944       -0.0809305008
 H         -5.0273685759        3.2354053058       -0.1609470109
 H         -6.5901791725        0.7477375996       -0.9617676424
 H         -5.6171159178        1.8168961761       -1.9901174862
 O         -3.3830692623        1.0250147041       -1.3569724405
 C         -2.1391569767        0.4181785336       -1.2160216860
 O         -1.2267468362        1.0078663005       -1.8229523398
 O         -3.1392769148       -2.3061705288        0.9507726318
 C         -0.7307855489       -1.4477795111       -0.2301804183
 C          0.3258267714       -0.4498256194        0.1669703266
 C          0.2899641774        0.0979068968        1.4460438595
 C          1.2248407148        1.0358169164        1.8415687712
 C          2.2168630360        1.4470961987        0.9692433730
 C          2.2609706677        0.9067677745       -0.3089365221
 C          1.3280788822       -0.0447577189       -0.7001364280
 H          1.3603490888       -0.4398749904       -1.7033523420
 N          3.2688345579        1.3198515399       -1.1960664330
 S          4.8385877826        1.3730395687       -0.6248687004
 O          5.0473200647        2.5866115308        0.1251134601
 O          5.6761122136        1.1999912120       -1.7910102876
 C          4.9729807513       -0.0379788723        0.4595404476
 C          5.1838623399        0.1446038811        1.8107035279
 C          5.2342583511       -0.9665640475        2.6374695134
 C          5.0692914175       -2.2340204903        2.1016599693
 C          4.8620738812       -2.4015778366        0.7407915814
 C          4.8118658279       -1.2946232771       -0.0901732822
 H          4.6592658195       -1.3896326771       -1.1532758559
 H          4.7360053489       -3.3890003592        0.3264679097
 H          5.1029421936       -3.0975567414        2.7470500542
 H          5.3974041104       -0.8396051920        3.6955553759
 H          5.3051794571        1.1474820900        2.1862262521
 H          3.2135637775        0.8947219790       -2.1092877417
 H          2.9455361509        2.1893480004        1.2523201560
 H          1.1803458499        1.4546816589        2.8354291835
 H         -0.4906603492       -0.2155409659        2.1256780855
 H         -0.9146740144       -2.1080942222        0.6330306446
 C         -0.3002613898       -2.3521629193       -1.3752611912
 C         -1.3165515569       -3.1179116398       -2.1670073421
 C         -0.5333765341       -2.0189687298       -2.8173640318
 H          0.2289167012       -2.2910173312       -3.5335600946
 H         -1.0352171170       -1.0926629794       -3.0486379481
 H         -1.0970256956       -4.1394199412       -2.4386294947
 H         -2.3584612642       -2.9386424047       -1.9448765841
 H          0.6225536117       -2.8757250003       -1.1435396144
