  62
        -98.94491265
 C          1.9246545477        0.1587723272        0.0790797587
 C          2.9425897094        0.9986553451        0.5914304307
 C          4.2552036008        0.3712636588        0.7777189607
 C          4.4167426824       -0.9339408686        0.4934094825
 C          5.6876562933       -1.7231710913        0.6553819666
 C          6.6551955843       -1.5983174243       -0.5295878317
 C          7.3724655110       -0.2526695897       -0.6449467614
 H          7.8414219634       -0.0094875208        0.3089957682
 H          8.1717166201       -0.3778648986       -1.3781794414
 C          6.4723387759        0.9085905768       -1.0897123311
 H          5.5551022505        0.5105989497       -1.5300115056
 H          6.9775904218        1.4829859217       -1.8694892622
 C          6.1018010852        1.8864205656        0.0254142252
 H          5.4343442885        2.6444998783       -0.3921321891
 H          7.0015610564        2.3908304271        0.3845263162
 C          5.3935875838        1.2390327548        1.2226919255
 H          6.1045500471        0.6622565710        1.8137021272
 H          4.9805718293        2.0342616253        1.8480406632
 H          6.1050609517       -1.7987282775       -1.4519666644
 H          7.4102415875       -2.3798419998       -0.4171440401
 H          5.3924316957       -2.7704083374        0.7497497312
 H          6.1932572932       -1.4204880998        1.5727953970
 O          3.4044103412       -1.7147271802        0.0299479172
 C          2.1420934607       -1.1884221753       -0.2089579351
 O          1.3228857468       -2.0102377313       -0.6617763395
 O          2.7602008922        2.2104190348        0.8846548700
 C          0.5475547331        0.7491413823       -0.1686036194
 C         -0.4821532927       -0.0040495965        0.6350329601
 C         -0.3144416212       -0.0863355227        2.0161168161
 C         -1.2091956643       -0.7905935158        2.7963500801
 C         -2.2990959637       -1.4189719942        2.2182562556
 C         -2.4796136706       -1.3393668218        0.8434999514
 C         -1.5774243071       -0.6284926105        0.0613172300
 H         -1.7341389014       -0.6016353029       -1.0033418571
 N         -3.5667879081       -1.9838291695        0.2315510318
 S         -4.4820310986       -1.2022254948       -0.9270069816
 O         -5.6806813280       -2.0034161342       -1.0408359943
 O         -3.7205098267       -1.0183199375       -2.1352074812
 C         -4.8739912070        0.3732297314       -0.1891338454
 C         -5.9256665141        0.4332285633        0.7047899225
 C         -6.2009185613        1.6343448133        1.3373673931
 C         -5.4173484749        2.7478146653        1.0737971446
 C         -4.3656853433        2.6709296269        0.1740693890
 C         -4.0879485359        1.4731063936       -0.4659140694
 H         -3.2821948241        1.3767039017       -1.1744309468
 H         -3.7585463869        3.5380868764       -0.0316390764
 H         -5.6283709904        3.6819635973        1.5700147949
 H         -7.0215043113        1.6988735708        2.0335931810
 H         -6.5159219097       -0.4529264054        0.8731501719
 H         -4.1595323608       -2.4952637953        0.8688464775
 H         -2.9955762725       -1.9780113168        2.8245056285
 H         -1.0608127784       -0.8512719026        3.8639493718
 H          0.5395778063        0.4015883500        2.4659401637
 H          0.6015097560        1.7779621980        0.2172702709
 C          0.2551943058        0.8024060241       -1.6526163984
 C         -0.6545134640        1.8582286969       -2.2029566854
 C          0.8196141116        1.9282891888       -2.4642210723
 H          1.1811421342        1.7156889664       -3.4591743572
 H          1.3963992252        2.6764919150       -1.9402180682
 H         -1.3122795102        1.5969376244       -3.0190293679
 H         -1.0706425913        2.5687664339       -1.5045193013
 H          0.2370023836       -0.1789721608       -2.1142330095
