  62
        -98.94121052
 C          2.5248567942        0.2591215068       -0.0064136838
 C          2.1430754692        1.2429485269       -0.9450879470
 C          1.4639411002        2.4397467035       -0.4180916387
 C          1.2571751896        2.5462773209        0.9079156856
 C          0.6272786459        3.6429290848        1.7427573765
 C         -0.0495083123        4.8348352831        1.0737283478
 C         -1.3877998331        4.5080475745        0.4071433376
 H         -2.1360813119        4.3728390670        1.1919546576
 H         -1.6916575577        5.3627272991       -0.2008438426
 C         -1.4099426348        3.2497933733       -0.4578317175
 H         -1.1317416631        2.3766251827        0.1370959672
 H         -2.4393694878        3.0829015111       -0.7892677494
 C         -0.5340310631        3.2923298206       -1.7074613617
 H         -0.8443760683        4.1203346110       -2.3493364378
 H         -0.7064378298        2.3577775089       -2.2502364074
 C          0.9747933937        3.4151075608       -1.4506166634
 H          1.4958184614        3.1614303714       -2.3791331791
 H          1.2462815410        4.4353168992       -1.1906924854
 H         -0.2443441403        5.5686360677        1.8604255650
 H          0.6339279284        5.3022753261        0.3707313006
 H         -0.0909151244        3.1416473586        2.3998739199
 H          1.4303851697        4.0136938441        2.3892608620
 O          1.6799941339        1.5850056776        1.7810283783
 C          2.2554230839        0.4033644370        1.3528104016
 O          2.4995049086       -0.4092484727        2.2663485609
 H          0.4996345518       -0.9568705240       -1.0259397619
 C          0.7528229487       -1.8756893915       -0.5162175458
 C          2.0775668627       -2.1368134111       -0.1895593171
 C          2.3797849951       -3.3369012826        0.4391760247
 C          1.3690759592       -4.2253087951        0.7676343529
 C          0.0451420602       -3.9292149417        0.5006839690
 C         -0.2637412828       -2.7391627821       -0.1495564986
 N         -1.5910951463       -2.3828208790       -0.4474506146
 S         -1.9719728662       -0.7347072976       -0.3431302012
 O         -1.7030092690       -0.1231630949       -1.6198092251
 O         -1.3354591526       -0.1445039997        0.8125251548
 C         -3.7353757288       -0.8316717586       -0.0920081584
 C         -4.5654108194       -0.9221411366       -1.1931981726
 C         -5.9321226741       -1.0381480100       -0.9941164406
 C         -6.4430563863       -1.0631006548        0.2950780783
 C         -5.5979030426       -0.9690521876        1.3907304342
 C         -4.2300906659       -0.8537182103        1.1983674730
 H         -3.5345887622       -0.7683592763        2.0183384414
 H         -5.9974544667       -0.9850381674        2.3919151366
 H         -7.5068724230       -1.1536846159        0.4475162294
 H         -6.5921899900       -1.1083933186       -1.8434872126
 H         -4.1212550891       -0.8899494008       -2.1744028623
 H         -2.2696874317       -2.9549893147        0.0367708253
 H         -0.7423481482       -4.6071312154        0.7929813559
 H          1.6155749263       -5.1518062415        1.2639145832
 H          3.4020522255       -3.5684275245        0.6898162888
 C          3.0889999109       -1.0607916574       -0.5046497382
 H          3.1596624857       -0.9576846286       -1.5979428933
 C          4.4674228810       -1.3295198301        0.0567069719
 C          5.4306061291       -2.1956852872       -0.6975072698
 C          5.6575171163       -0.7169346913       -0.6167718284
 H          6.4643372467       -0.3492388466       -0.0009869558
 H          5.4745151323       -0.1204764286       -1.4987062829
 H          6.0870982166       -2.8446729105       -0.1380099860
 H          5.0999774788       -2.6059115999       -1.6396876364
 H          4.4726916779       -1.3746319981        1.1397277983
 O          2.3617641359        1.1271893018       -2.1834320091
