  62
        -98.94171797
 C         -2.3777033478       -1.0677392327        0.1318973161
 C         -3.6368083021       -0.9335259602        0.7751714079
 C         -4.6112142020       -0.0445177111        0.1305322024
 C         -4.2619815424        0.6034702771       -0.9951846441
 C         -5.1326293925        1.5818997117       -1.7278149296
 C         -4.8998284408        3.0152445613       -1.2301462699
 C         -4.9425042846        3.1555849796        0.2915403849
 H         -4.0967065087        2.6146328390        0.7225336512
 H         -4.7981600121        4.2128793869        0.5241440905
 C         -6.2440249765        2.6619416881        0.9388729994
 H         -6.5684919550        3.3981707936        1.6772115464
 H         -7.0290796561        2.5917820727        0.1851129061
 C         -6.1210678911        1.3232187334        1.6688777354
 H         -7.0242875179        1.1781786076        2.2673818708
 H         -5.2739603400        1.3585746687        2.3584098443
 C         -5.9628521515        0.0872133815        0.7744905707
 H         -6.0810383509       -0.7970638569        1.4075206185
 H         -6.7509306136        0.0767282739        0.0187164055
 H         -5.6552562019        3.6628892175       -1.6788840310
 H         -3.9181816408        3.3469085729       -1.5769589647
 H         -6.1760002275        1.3037166747       -1.5916024113
 H         -4.8876779696        1.5316747756       -2.7901905137
 O         -3.0423261743        0.4704572417       -1.5723413901
 C         -2.0654404198       -0.3579410242       -1.0293543157
 O         -1.0042298906       -0.3626376736       -1.6812192291
 O         -3.9323965102       -1.5334010385        1.8425299115
 C         -1.3573704516       -1.9749676504        0.7995102455
 C         -0.0513556549       -1.2425909152        0.9647813681
 C          0.0915989993       -0.3247841409        2.0011285627
 C          1.2608387840        0.3974649283        2.1469125314
 C          2.3070288112        0.2279450579        1.2566330118
 C          2.1653096687       -0.6693186268        0.2071897992
 C          0.9997285266       -1.4136764963        0.0789068522
 H          0.8946408527       -2.0998532255       -0.7469441923
 N          3.2144663925       -0.8446019536       -0.7092854700
 S          4.0492084648        0.4973800094       -1.2705874649
 O          3.2354103621        1.6905234901       -1.2760450139
 O          4.6022256370        0.0872229696       -2.5433917707
 C          5.3813328453        0.6728260230       -0.0990622283
 C          6.1749557387       -0.4286985305        0.1552558504
 C          7.2198266040       -0.3074980997        1.0571785417
 C          7.4550692459        0.9071280558        1.6841190315
 C          6.6526274985        2.0050736963        1.4150134497
 C          5.6049331571        1.8897651478        0.5144085675
 H          4.9519909602        2.7152090174        0.2780900280
 H          6.8370420865        2.9490896430        1.9022605266
 H          8.2686908546        0.9988912457        2.3861759031
 H          7.8462282611       -1.1590934196        1.2686209964
 H          5.9610151100       -1.3528111141       -0.3550093250
 H          2.9797891427       -1.4621442378       -1.4731314467
 H          3.2152698723        0.7996031720        1.3546292829
 H          1.3595219919        1.1033207501        2.9576771701
 H         -0.7318879263       -0.1773962304        2.6864252490
 H         -1.7754906959       -2.1573601712        1.8026384503
 C         -1.1941000331       -3.3403624438        0.1481937908
 C         -2.3875712710       -4.0754407052       -0.3824672980
 C         -1.3352492375       -3.5763425127       -1.3244815121
 H         -0.6800672847       -4.2999644992       -1.7881000943
 H         -1.5639080666       -2.7321603544       -1.9558522681
 H         -2.4616903328       -5.1378634121       -0.2063986590
 H         -3.3367192165       -3.5599531236       -0.3603998660
 H         -0.4481368751       -3.9391258445        0.6624398723
