  62
        -98.93806240
 C         -2.0538036501       -0.4036943898       -0.2381872998
 C         -3.0610077001       -0.7420642397        0.7002096902
 C         -4.2281545600        0.1514389104        0.7704959802
 C         -4.2748812499        1.2346872804       -0.0234224497
 C         -5.3361686398        2.3041176606       -0.0947837497
 C         -6.8021035098        1.8535894407       -0.0397922197
 C         -7.0887131700        0.4954431108       -0.6968260497
 H         -7.9200044700        0.6077631309       -1.3953521497
 H         -6.2215271801        0.1679936107       -1.2728423897
 C         -7.4685342101       -0.5887264992        0.3145743603
 H         -8.1581038001       -0.1596859291        1.0448694603
 H         -8.0017655902       -1.3860108391       -0.2088312997
 C         -6.2973184802       -1.2361508193        1.0524508302
 H         -5.7243225903       -1.8607504694        0.3618930702
 H         -6.7076147403       -1.8988850793        1.8181437202
 C         -5.3152967601       -0.2604491095        1.7212429302
 H         -5.8347772699        0.6001126606        2.1356208003
 H         -4.8168784301       -0.7916895596        2.5365965102
 H         -7.1358301298        1.8242055908        0.9964666003
 H         -7.3882008197        2.6292506708       -0.5357483997
 H         -5.1510689797        3.0202321705        0.7113799503
 H         -5.1490525397        2.8265731706       -1.0361837197
 O         -3.2765060699        1.5324529203       -0.9011646998
 C         -2.1501668900        0.7351901202       -1.0359071898
 O         -1.3427858699        1.1500817201       -1.8901506798
 O         -2.9858991802       -1.7485516998        1.4533936702
 C         -0.8354266702       -1.3093631700       -0.3222190599
 C          0.3347516399       -0.6050887401        0.3194670101
 C          0.5658862899       -0.7607068802        1.6831265601
 C          1.6005843800       -0.0872689203        2.3059916701
 C          2.4253173101        0.7566842296        1.5833769501
 C          2.2025751101        0.9181493296        0.2219259101
 C          1.1724613300        0.2293875898       -0.4054591699
 H          0.9952005900        0.3817267298       -1.4583473199
 N          3.0285277802        1.7779287295       -0.5176824899
 S          4.6749317202        1.7511548493       -0.2406765199
 O          4.9863566903        2.5362138393        0.9286362401
 O          5.2761660402        2.1988125793       -1.4773951199
 C          5.0743269200        0.0384807193        0.0634256201
 C          5.6223356999       -0.3364820108        1.2730848501
 C          5.9015583498       -1.6752559408        1.4968530800
 C          5.6268712896       -2.6112798908        0.5122844700
 C          5.0798672597       -2.2183248807       -0.6998252100
 C          4.7991850998       -0.8813312107       -0.9290916699
 H          4.3779049698       -0.5430823306       -1.8621390599
 H          4.8683240496       -2.9482310207       -1.4645863400
 H          5.8408467595       -3.6535843908        0.6887635800
 H          6.3287885698       -1.9830577709        2.4376007800
 H          5.8189769000        0.4241298492        2.0110661301
 H          2.8038625201        1.8253246796       -1.4998676599
 H          3.2232873801        1.3064339495        2.0555388201
 H          1.7654846800       -0.2158837504        3.3648474401
 H         -0.0885113602       -1.4048186001        2.2530237701
 H         -1.0838455803       -2.1809514000        0.2978036501
 C         -0.5566138203       -1.7822783300       -1.7339391699
 C          0.3849250896       -2.9287541701       -1.9459956199
 C         -1.0841504205       -3.1127631699       -2.1768690799
 H         -1.4404332705       -3.2130756999       -3.1913176099
 H         -1.6459167005       -3.6924166899       -1.4590858399
 H          1.0393482295       -2.9060707302       -2.8037615799
 H          0.8203901795       -3.3823821202       -1.0687714199
 H         -0.5579249902       -0.9850623100       -2.4664747298
