  62
        -98.93993255
 C         -2.1722756465       -0.6733265614        0.7076859232
 C         -2.3807839285       -0.0782673344       -0.5613926026
 C         -3.3938010937        0.9868662113       -0.6037479505
 C         -3.9866249912        1.3989804880        0.5303777956
 C         -5.0229396675        2.4833042568        0.6479200070
 C         -6.4547080759        2.0082146497        0.3642362811
 C         -6.7633016363        1.7128502483       -1.1041540240
 H         -7.8463034339        1.6021868089       -1.1869812651
 H         -6.4761738562        2.5702092494       -1.7136931090
 C         -6.0945544065        0.4434291418       -1.6500529934
 H         -5.7644173568       -0.1815498367       -0.8169380625
 H         -6.8257295137       -0.1390366320       -2.2149385433
 C         -4.9068607140        0.7010030256       -2.5776183488
 H         -4.4904696487       -0.2643108467       -2.8766445808
 H         -5.2509721102        1.2121916635       -3.4793037066
 C         -3.7797027538        1.5294461575       -1.9466189249
 H         -4.0808346311        2.5735107072       -1.8641981264
 H         -2.9017224196        1.4666872649       -2.5941642899
 H         -6.6526152005        1.1173949866        0.9651235381
 H         -7.1318591533        2.7949303050        0.7047846075
 H         -4.9777226740        2.8464795415        1.6770605065
 H         -4.7713669491        3.3058410894       -0.0222004488
 O         -3.6800794360        0.8717388092        1.7468853326
 C         -2.7888503383       -0.1832239030        1.8612481698
 O         -2.6173002266       -0.5806711500        3.0320750254
 O         -1.7654614286       -0.4068361354       -1.6068575294
 C         -1.2038913367       -1.8276417324        0.8957945305
 C          0.1005584669       -1.5367849253        0.1940211494
 C          0.6842069639       -2.3833143200       -0.7384664090
 C          1.8996556864       -2.0589231877       -1.3161358717
 C          2.5588670614       -0.8920592456       -0.9774351631
 C          1.9845134276       -0.0379868793       -0.0449993314
 C          0.7710992565       -0.3673849590        0.5348172051
 H          0.3262876010        0.2995657876        1.2655983193
 N          2.6614922584        1.1532758647        0.3067759571
 S          4.0728498247        0.9257625893        1.2002207928
 O          3.9695138744       -0.2379485601        2.0527101991
 O          4.3141105087        2.1876728436        1.8657010237
 C          5.3251861679        0.6619499289       -0.0359469754
 C          5.9529539234       -0.5651005119       -0.1235945728
 C          6.9231561836       -0.7523113160       -1.0957871495
 C          7.2463552818        0.2850203354       -1.9572962196
 C          6.6085105315        1.5124512354       -1.8536215127
 C          5.6380122497        1.7066665623       -0.8836759074
 H          5.1218891273        2.6446465928       -0.7640340403
 H          6.8637095118        2.3169256368       -2.5244535635
 H          8.0007116882        0.1362953729       -2.7136928959
 H          7.4207157819       -1.7052303750       -1.1777208054
 H          5.6644591046       -1.3425117679        0.5653744841
 H          2.0690815730        1.8067290551        0.8005748162
 H          3.4994377748       -0.6306367452       -1.4340731551
 H          2.3368932009       -2.7233089495       -2.0456709666
 H          0.1785899819       -3.2893069366       -1.0289898436
 H         -0.9939277587       -1.8470144076        1.9789322089
 C         -1.7888575095       -3.1886466832        0.5461186805
 C         -3.2666569849       -3.4332973264        0.6052719144
 C         -2.5606385798       -3.4287712927       -0.7153861709
 H         -2.4271954049       -4.3714619064       -1.2256781087
 H         -2.7064842232       -2.5900758709       -1.3768426579
 H         -3.6141014829       -4.3747310774        1.0037468907
 H         -3.9034311950       -2.5954225977        0.8509524310
 H         -1.1572058977       -4.0001326589        0.8944405891
