  62
        -98.94432889
 C         -1.5906667893       -1.4115798503        0.4938566650
 C         -1.6434650454       -0.1270969875        1.0923701948
 C         -2.7863228658        0.7113560954        0.7161492310
 C         -3.7005637808        0.2416901043       -0.1520780050
 C         -4.9425016804        0.9601196823       -0.6060912973
 C         -4.7139694048        1.9316767134       -1.7719444065
 C         -3.9640495584        3.2140914470       -1.4103619153
 H         -4.0616580094        3.8923484013       -2.2603105226
 H         -4.4500148413        3.6888766167       -0.5574744674
 C         -2.4727027177        3.0099242302       -1.1088112270
 H         -2.1508204623        2.0409147295       -1.4977064778
 H         -1.8885586930        3.7716805500       -1.6293522334
 C         -2.1065412801        3.0948398953        0.3726576316
 H         -1.0372052880        2.8938777426        0.4699071034
 H         -2.2982546724        4.1056208472        0.7386004643
 C         -2.8549988937        2.1018560978        1.2708988220
 H         -3.8926178061        2.4109098742        1.3957227901
 H         -2.3704931425        2.0928751490        2.2500744057
 H         -4.1763041689        1.4056152485       -2.5642290491
 H         -5.6960363322        2.2071797111       -2.1633748108
 H         -5.6440891039        0.1896249602       -0.9331506507
 H         -5.3830008932        1.4962762730        0.2349832555
 O         -3.6050235917       -0.9896644575       -0.7183387317
 C         -2.5390051758       -1.8342064864       -0.4379832359
 O         -2.5705763527       -2.9082104885       -1.0678771581
 O         -0.7821230913        0.2933391943        1.9096404850
 C         -0.4175763462       -2.3104002877        0.8494907695
 C          0.5531120608       -2.3090810613       -0.3057134129
 C          0.6133508639       -3.3266945753       -1.2494119620
 C          1.5010035348       -3.2430160020       -2.3076975865
 C          2.3568960411       -2.1637525585       -2.4308208252
 C          2.3044757531       -1.1398977175       -1.4910345886
 C          1.3959149669       -1.2126838405       -0.4474847878
 H          1.3450173190       -0.4098543534        0.2736854228
 N          3.1567340046       -0.0292481552       -1.5865021448
 S          3.8828955769        0.5751545326       -0.2008391511
 O          5.1048569868        1.1903695871       -0.6773934957
 O          4.0403649787       -0.4505030127        0.8032930944
 C          2.7971914982        1.8627881351        0.3697384008
 C          2.5097919538        2.8981063839       -0.4984386934
 C          1.7171025824        3.9425633442       -0.0535745018
 C          1.2293621100        3.9348463018        1.2454086639
 C          1.5235955888        2.8864089680        2.1026947926
 C          2.3168228064        1.8388834293        1.6628678106
 H          2.5637787908        1.0033437005        2.2985338359
 H          1.1324539078        2.8721297905        3.1070134495
 H          0.6145592258        4.7506575440        1.5920194629
 H          1.4797493245        4.7582819762       -0.7174712191
 H          2.9153219017        2.8710899326       -1.4962082158
 H          3.8112462831       -0.0681317498       -2.3546977703
 H          3.0602931325       -2.1094334794       -3.2482076538
 H          1.5353186574       -4.0358209696       -3.0398043527
 H         -0.0484951505       -4.1726293186       -1.1650330663
 H          0.0782884458       -1.8157011092        1.6965741491
 C         -0.8498198188       -3.6939253311        1.2844221796
 C          0.1338861539       -4.5730704020        1.9951976980
 C         -1.0208150738       -3.9812751186        2.7447079118
 H         -1.8260235016       -4.6326630426        3.0498077539
 H         -0.8209252299       -3.1792819686        3.4402791339
 H          0.1244759060       -5.6321913056        1.7879849590
 H          1.1189869983       -4.1697033480        2.1778394892
 H         -1.5502849217       -4.1619680357        0.6043551672
