  62
        -98.93989984
 C          2.6375978032        0.2066180715        0.5534759246
 C          2.1755967245       -0.2422775467       -0.7099904921
 C          1.9942018446       -1.6956682797       -0.8494029646
 C          2.2465955812       -2.4998941199        0.1977093519
 C          2.1050507096       -3.9941099978        0.1915544504
 C          0.7152419871       -4.4405102113        0.6626149033
 C         -0.4430470853       -3.7242041377       -0.0326662949
 H         -1.3673958190       -4.1762003263        0.3352007692
 H         -0.4628738231       -2.6748217226        0.2702977559
 C         -0.4179252716       -3.8018710414       -1.5651602317
 H          0.2179475390       -4.6284330271       -1.8868791178
 H         -1.4299323353       -4.0116791231       -1.9181498758
 C          0.0322268115       -2.5139373809       -2.2588566143
 H         -0.5176811038       -1.6622311563       -1.8464662863
 H         -0.2319477242       -2.5874198608       -3.3178945674
 C          1.5336141339       -2.2058381712       -2.1851011365
 H          2.1056969520       -3.0888311676       -2.4805912642
 H          1.7419345219       -1.4040769726       -2.8999421053
 H          0.6290478084       -5.5165550929        0.4976579932
 H          0.6360443336       -4.2528797885        1.7359071866
 H          2.2931172462       -4.3624824472       -0.8152544481
 H          2.8559633563       -4.4090181830        0.8667857221
 O          2.6500374364       -2.0305752158        1.4068501131
 C          2.8203461923       -0.6731233962        1.6218427769
 O          3.1354020004       -0.3774434483        2.7934537317
 H          0.3262628861        1.1856027994        1.5331157073
 C          0.3674342912        1.9930041501        0.8101985158
 C          1.6038419804        2.4228680750        0.3444294382
 C          1.6342011394        3.4488219997       -0.5899683432
 C          0.4562811164        3.9953363430       -1.0710575492
 C         -0.7727429483        3.5266217201       -0.6416850038
 C         -0.8091671027        2.5216125123        0.3119040060
 N         -2.0703321922        1.9760006533        0.7126840619
 S         -2.2985178294        0.4832025204       -0.0599450343
 O         -1.5393301803       -0.5496753230        0.6148366402
 O         -2.0519560343        0.6638009109       -1.4667924408
 C         -4.0423024883        0.2243043007        0.2096920752
 C         -4.4788376379       -0.8052756153        1.0192056457
 C         -5.8407767561       -0.9629953753        1.2270027503
 C         -6.7358959300       -0.0903450832        0.6279979350
 C         -6.2814038043        0.9402949801       -0.1819603193
 C         -4.9221510341        1.1014512627       -0.3949212419
 H         -4.5208630238        1.8818319850       -1.0196692002
 H         -6.9808314384        1.6165784433       -0.6463339134
 H         -7.7945518450       -0.2148746875        0.7924294766
 H         -6.1960066069       -1.7641490623        1.8550253064
 H         -3.7456991085       -1.4599833431        1.4628695571
 H         -2.0813169023        1.7853713482        1.7077681118
 H         -1.6954777047        3.9135182382       -1.0417205680
 H          0.4977956412        4.7799236655       -1.8112742808
 H          2.5807570301        3.7926215655       -0.9744112666
 C          2.8179748697        1.6876409248        0.8547535967
 H          2.8166418664        1.7533826650        1.9559315564
 C          4.1378874146        2.2798591975        0.3876891872
 C          5.3647774629        1.4258123309        0.2763711928
 C          4.7243608082        1.9820977062       -0.9580114828
 H          5.2322021510        2.7794909976       -1.4807221573
 H          4.1775883836        1.3143729362       -1.6041806727
 H          6.3082517048        1.8386474632        0.6004159630
 H          5.2564344910        0.3698031938        0.4785813791
 H          4.2867271209        3.2840015157        0.7729453025
 O          1.9439729884        0.5187537720       -1.6845463188
