  62
        -98.94796263
 C          1.2436806404        0.7989296002        0.4153105891
 C          2.0678423201        0.5917124897       -0.7164978510
 C          3.0086001399       -0.5312361005       -0.6198519909
 C          2.9985819799       -1.3230450002        0.4676479893
 C          3.8762932696       -2.5235640504        0.6972756194
 C          5.2657955698       -2.1850531406        1.2549507090
 C          6.2263860598       -1.5355933511        0.2578903787
 H          7.2193096899       -1.5549690312        0.7113897485
 H          6.2701631694       -2.1409371513       -0.6480077812
 C          5.8776263901       -0.0855530311       -0.1056001016
 H          5.1834026503        0.3182551292        0.6347803184
 H          6.7810416502        0.5270036987       -0.0660537819
 C          5.2713232598        0.0903356187       -1.4978243815
 H          6.0059810096       -0.1894884716       -2.2560434916
 H          5.0298091201        1.1471892688       -1.6357757217
 C          3.9913150496       -0.7218008810       -1.7354738211
 H          3.5207012795       -0.3633645311       -2.6544869911
 H          4.2310574793       -1.7782867511       -1.8560486309
 H          5.1438055402       -1.5322248504        2.1223278189
 H          5.7127737797       -3.1193900707        1.6024042691
 H          3.3556568496       -3.1537686601        1.4219675296
 H          3.9806158093       -3.0832170707       -0.2329261205
 O          2.1454120601       -1.1278199698        1.5083269094
 C          1.2539378804       -0.0674249096        1.5076988393
 O          0.5277181606       -0.0054658492        2.5220592695
 H         -0.8388377400       -0.3737076595       -0.3282626302
 C         -1.2571774899        0.4496757705       -0.8861424303
 C         -0.7878523996        1.7364482204       -0.6629704607
 C         -1.3182960695        2.7741450104       -1.4191394608
 C         -2.2824984997        2.5161724204       -2.3785638806
 C         -2.7577421601        1.2337689005       -2.5860407302
 C         -2.2374851502        0.1900898405       -1.8292821100
 N         -2.6884997606       -1.1284867494       -1.9928359396
 S         -2.8088322605       -2.1238583590       -0.6538646394
 O         -1.5041657906       -2.5791520193       -0.2421569495
 O         -3.7336787009       -3.1589577189       -1.0661318490
 C         -3.5690505000       -1.1058847086        0.5990087005
 C         -2.8470137397       -0.6424180285        1.6792063903
 C         -3.4737868393        0.1919627119        2.5925886202
 C         -4.8014141993        0.5458025422        2.4139074504
 C         -5.5166775596        0.0636702721        1.3277081007
 C         -4.8958818100       -0.7667094583        0.4102079607
 H         -5.4200066803       -1.1716329583       -0.4401916491
 H         -6.5512342696        0.3349605523        1.1931146208
 H         -5.2803135590        1.1982744624        3.1268158404
 H         -2.9082716090        0.5604832619        3.4338117300
 H         -1.8123292398       -0.9233639387        1.8028106301
 H         -3.4718800907       -1.2392419393       -2.6194138695
 H         -3.5139981503        1.0374144405       -3.3302189800
 H         -2.6776384596        3.3291148204       -2.9683692207
 H         -0.9711028892        3.7823704304       -1.2636151911
 C          0.2409653107        1.9372605304        0.4246165991
 H         -0.2837243191        1.8706968608        1.3900431992
 C          0.9502640410        3.2733646202        0.3460987986
 C          0.3702503714        4.4795257105        1.0198722185
 C          1.5930769814        3.8221909404        1.5833740584
 H          2.5431728115        4.3266671801        1.4911877281
 H          1.4932687114        3.2441456606        2.4909975885
 H          0.4834350516        5.4409709204        0.5420283782
 H         -0.5599760785        4.3564943709        1.5535515587
 H          1.4742789709        3.4102052099       -0.5925291415
 O          2.0217661701        1.3022752795       -1.7544324311
