  62
        -98.93988350
 C         -1.6249539462       -1.2723588862        0.2525374329
 C         -1.6710091963        0.0829469747        0.6714647721
 C         -2.6977174384        0.9251786588        0.0465812868
 C         -3.4932372889        0.3925569374       -0.8986030109
 C         -4.6128291606        1.1175376006       -1.5866567405
 C         -5.9402014797        0.9291429258       -0.8390035449
 C         -5.8469792137        1.2013434005        0.6623783821
 H         -5.2049482795        0.4464230107        1.1220736728
 H         -6.8475389217        1.0687170887        1.0797789257
 C         -5.3231024701        2.5985066404        1.0228331123
 H         -5.9530389514        3.0157085044        1.8113741144
 H         -5.4063443722        3.2593899905        0.1593349792
 C         -3.8843931602        2.6206811719        1.5424549225
 H         -3.7756518860        1.8899878810        2.3478339993
 H         -3.6937691926        3.6088514118        1.9695867979
 C         -2.7921322213        2.3550734074        0.4985606215
 H         -1.8282353955        2.5814801831        0.9623701111
 H         -2.9339181427        3.0200564101       -0.3557667943
 H         -6.2743554701       -0.1014338736       -0.9800256961
 H         -6.6849706464        1.5908497757       -1.2851303062
 H         -4.3681511262        2.1759302409       -1.6513555536
 H         -4.7149725719        0.7146890741       -2.5957095652
 O         -3.3909298329       -0.8957650066       -1.3077165502
 C         -2.4557785489       -1.7644775917       -0.7544399351
 O         -2.4849348308       -2.9067069262       -1.2464566013
 H          1.7571076270       -1.1430338888        1.8673080016
 C          1.8296085039       -1.3909493936        0.8173214074
 C          0.7323385232       -1.9356973850        0.1687181323
 C          0.8289451251       -2.2149581926       -1.1915013821
 C          2.0054506286       -1.9688688586       -1.8749180894
 C          3.0997162064       -1.4241179181       -1.2240513453
 C          3.0052072386       -1.1242878061        0.1276816580
 N          4.1022395204       -0.5302862796        0.7854157683
 S          4.6284203411        0.9319206187        0.1519794720
 O          5.3408127339        0.6844054766       -1.0756342319
 O          5.3849129741        1.5572250046        1.2126462638
 C          3.1327234229        1.8448972325       -0.1770103613
 C          2.4974291936        2.4647126744        0.8803321500
 C          1.3001707537        3.1216672021        0.6518821815
 C          0.7561191285        3.1372019386       -0.6226464627
 C          1.4035387008        2.5060971316       -1.6729810695
 C          2.6044548882        1.8517635017       -1.4517772073
 H          3.1407447044        1.3548492091       -2.2433939727
 H          0.9735723115        2.5174906211       -2.6618472443
 H         -0.1801204362        3.6431327378       -0.7980705039
 H          0.7909034549        3.6081939923        1.4680934740
 H          2.9528480102        2.4351109574        1.8573523100
 H          3.9579499393       -0.4303747659        1.7806935308
 H          4.0183569885       -1.2102077296       -1.7460516974
 H          2.0704225022       -2.1965219511       -2.9282177358
 H         -0.0327491553       -2.6171538583       -1.7038092947
 C         -0.5627917685       -2.1355227687        0.9120373844
 H         -0.4334687766       -1.7019018780        1.9164160935
 C         -0.9599173935       -3.5917746115        1.0949172851
 C         -0.2524951464       -4.7356650151        0.4380489886
 C         -0.0810395401       -4.4981094885        1.9063136269
 H         -0.5407763807       -5.1821313082        2.6034293986
 H          0.8670829252       -4.1005421874        2.2373278610
 H          0.5821152822       -4.5220556393       -0.2107713115
 H         -0.8533774205       -5.5708279842        0.1118481257
 H         -2.0297228004       -3.7094531977        1.2285864883
 O         -0.8894846024        0.5589035168        1.5372363462
