  62
        -98.94789106
 C         -0.9493774679       -1.0384818986        0.7031616164
 C         -1.5454190960       -0.9292942243       -0.5761199944
 C         -2.2640628244        0.3249763604       -0.8415442251
 C         -2.2661030463        1.2941007738        0.0910451665
 C         -2.9813262168        2.6077464156       -0.0376002089
 C         -4.4074707889        2.5252726221        0.5244834744
 C         -5.2046268011        1.3258731293        0.0125710301
 H         -4.7446164480        0.4075923437        0.3842572936
 H         -6.2027731017        1.3875399253        0.4512746156
 C         -5.3224229923        1.2479067674       -1.5158682017
 H         -6.3559777971        1.0106104517       -1.7766078821
 H         -5.0919061123        2.2186807341       -1.9563175915
 C         -4.4429073339        0.1775322672       -2.1650873903
 H         -4.7596688265        0.0610160828       -3.2049908030
 H         -4.6027162036       -0.7810175015       -1.6649956527
 C         -2.9364313057        0.4676723745       -2.1771147578
 H         -2.4566870174       -0.2677972270       -2.8301122365
 H         -2.7517143212        1.4595738877       -2.5962168012
 H         -4.9317569723        3.4483419922        0.2707155308
 H         -4.3464585538        2.4559938759        1.6128517302
 H         -3.0064530194        2.8974347878       -1.0867214890
 H         -2.4233527468        3.3612812423        0.5214186458
 O         -1.6429783853        1.1709080399        1.2911085882
 C         -0.9657870160        0.0081377783        1.6235653830
 O         -0.4248747080        0.0311874549        2.7475321592
 O         -1.4856613316       -1.8334758685       -1.4504366697
 C         -0.1520573454       -2.2796465558        1.0642839647
 C          1.0086924286       -2.4102524806        0.1070815908
 C          1.3852585315       -3.6010813807       -0.4992131787
 C          2.4449405493       -3.6245622146       -1.3902902634
 C          3.1369760440       -2.4692962128       -1.7045590839
 C          2.7755520990       -1.2747205563       -1.0915049983
 C          1.7372847488       -1.2621502750       -0.1766193221
 H          1.4615917198       -0.3329847013        0.3006329742
 N          3.4540679196       -0.0765928541       -1.3628314075
 S          2.5950027896        1.3601596639       -1.3988325152
 O          1.2625502919        1.1854580383       -1.9287759199
 O          3.4520712309        2.2663310168       -2.1368072034
 C          2.5262874995        1.8923550230        0.2975860669
 C          3.6422887242        1.7465994758        1.0971594962
 C          3.5816500531        2.1818637040        2.4111426034
 C          2.4167485750        2.7545832831        2.8987106626
 C          1.3079943581        2.9014207324        2.0804724118
 C          1.3629814116        2.4692218143        0.7656281152
 H          0.5176387650        2.5462651037        0.0985536393
 H          0.3966442601        3.3327746434        2.4623750851
 H          2.3675078149        3.0840636617        3.9244877558
 H          4.4401852232        2.0683736527        3.0534306731
 H          4.5272665848        1.2905325582        0.6857624904
 H          4.1377331326       -0.1273224294       -2.1042132673
 H          3.9455439531       -2.4866766310       -2.4193186827
 H          2.7250194688       -4.5547436700       -1.8611115019
 H          0.8430064068       -4.5074619932       -0.2852254365
 H          0.2544438336       -2.0976789307        2.0702095940
 C         -1.0441112699       -3.5018133621        1.1095235568
 C         -0.7117742234       -4.6447773148        2.0198434497
 C         -1.8700907318       -3.7481633296        2.3351016117
 H         -2.8714013878       -4.1331502538        2.2133811138
 H         -1.7685490142       -3.0457230647        3.1497444771
 H         -0.9206180185       -5.6492962747        1.6839732320
 H          0.1750758469       -4.5572735934        2.6289594401
 H         -1.4948264752       -3.7231744803        0.1490211149
