  62
        -98.93695799
 C         -1.9161709063       -1.4742023191        0.4129726611
 C         -1.6521038503       -0.4786864745       -0.5563897110
 C         -2.4106631192        0.7864663115       -0.4342931475
 C         -3.2455895137        0.9502593982        0.6076425937
 C         -4.0887661477        2.1473987370        0.9616340576
 C         -3.2654799922        3.3037556700        1.5458145387
 C         -2.0123638464        3.6579170788        0.7502514354
 H         -1.4939517831        4.4536588701        1.2916756767
 H         -1.3459531645        2.7939818450        0.7245798271
 C         -2.2704003438        4.1454924225       -0.6737024742
 H         -1.3216019372        4.5178258553       -1.0654868765
 H         -2.9678761497        4.9852389365       -0.6438668100
 C         -2.8047620947        3.0965397925       -1.6540420582
 H         -2.6292959611        3.4758777329       -2.6645732790
 H         -3.8806401905        2.9731585084       -1.5576079375
 C         -2.1187348421        1.7369978500       -1.5697435619
 H         -2.3476503316        1.1747426083       -2.4827771798
 H         -1.0316207853        1.8724101526       -1.5817550737
 H         -2.9574005139        3.0262090602        2.5571810255
 H         -3.9124281689        4.1798357065        1.6205410825
 H         -4.8026950364        1.8123525066        1.7177267252
 H         -4.6548427528        2.4798254220        0.0967282635
 O         -3.4082627112       -0.0121999689        1.5631307051
 C         -2.7644944345       -1.2310812119        1.4945354329
 O         -3.0119325492       -1.9993499339        2.4467476215
 O         -0.8251936213       -0.6164393204       -1.4934648365
 C         -1.2358082850       -2.8312561578        0.3706070074
 C          0.2322056805       -2.6668974681        0.0615667922
 C          0.8761972138       -3.2951352102       -0.9954394390
 C          2.2290256740       -3.0945308676       -1.2097777912
 C          2.9667353648       -2.2688317535       -0.3823250826
 C          2.3295732192       -1.6262859447        0.6725303237
 C          0.9776584182       -1.8377894560        0.8918163265
 H          0.4823443708       -1.3395040594        1.7171908668
 N          3.0628468306       -0.7837731212        1.5298687613
 S          4.0203040681        0.4286635112        0.8897533323
 O          5.1071619198       -0.1664145316        0.1539623810
 O          4.3888144009        1.2453146327        2.0241321070
 C          2.9809390257        1.3667814670       -0.2139950973
 C          2.8109476278        0.9450435373       -1.5173751127
 C          1.9937494542        1.6838049858       -2.3573473470
 C          1.3691919216        2.8276548013       -1.8849782876
 C          1.5461407932        3.2353986783       -0.5713410922
 C          2.3537043163        2.4951979445        0.2757455252
 H          2.5253390207        2.7819215070        1.3010316584
 H          1.0582621249        4.1241108091       -0.2038770985
 H          0.7459296994        3.4075595383       -2.5481384107
 H          1.8441089701        1.3619958719       -3.3750864122
 H          3.3205954576        0.0587906920       -1.8565434972
 H          2.5159333237       -0.4161536340        2.2948622508
 H          4.0203412536       -2.1032806045       -0.5398543456
 H          2.7169707358       -3.5887468718       -2.0363562119
 H          0.3170176616       -3.9255077721       -1.6666259020
 H         -1.3178839769       -3.2224717064        1.3987835398
 C         -1.9314208933       -3.8403835920       -0.5317214414
 C         -3.3996431999       -3.7409620363       -0.8165955935
 C         -2.4059113327       -3.4848404532       -1.9074714663
 H         -2.3064881162       -4.2216656303       -2.6911041044
 H         -2.2536983360       -2.4701684263       -2.2390372427
 H         -3.9771254571       -4.6528107716       -0.8466896967
 H         -3.9362363335       -2.9001691704       -0.4010999682
 H         -1.5403455773       -4.8436757053       -0.3932466109
