  62
        -98.93774746
 C         -2.2889000867       -0.7472680850        0.7813836997
 C         -3.4431655981       -0.9029584695       -0.0250190104
 C         -4.4953339760        0.1098632921        0.1567728858
 C         -4.3229767596        1.0963012515        1.0539475989
 C         -5.2851314078        2.2232708051        1.2909613148
 C         -4.9550238646        3.4304289810        0.4018147245
 C         -4.7497637003        3.0755195859       -1.0709730144
 H         -3.8545710179        2.4565092866       -1.1672569737
 H         -4.5540273867        4.0076920322       -1.6053987593
 C         -5.9376042076        2.3530207356       -1.7217266530
 H         -6.1260162479        2.8006810317       -2.6998184521
 H         -6.8352577494        2.4998706704       -1.1200203378
 C         -5.7212612862        0.8561247810       -1.9516358788
 H         -4.7737206733        0.6987564634       -2.4731127047
 H         -6.5190997399        0.4940203287       -2.6055225656
 C         -5.7287448598       -0.0198786851       -0.6925055059
 H         -5.7623788846       -1.0645139068       -1.0149575614
 H         -6.6249744056        0.1872399040       -0.1045484107
 H         -4.0373714217        3.8925522407        0.7730953489
 H         -5.7635060716        4.1579674573        0.4936872225
 H         -6.2977181732        1.8778690913        1.0921660969
 H         -5.2117860838        2.5231796437        2.3376698079
 O         -3.2097767234        1.2054165018        1.8230689851
 C         -2.1699899177        0.3016293931        1.6990008920
 O         -1.2066911540        0.5300338187        2.4588842404
 H          1.3492307594       -0.5629502948        0.7523025042
 C          1.0247503036       -0.7686171819       -0.2560163220
 C         -0.2182968685       -1.3472455334       -0.4725648952
 C         -0.6294507327       -1.5901624830       -1.7789980482
 C          0.1952817821       -1.2662984084       -2.8402824200
 C          1.4437294880       -0.7121605416       -2.6198718411
 C          1.8613820416       -0.4565270063       -1.3187357879
 N          3.1125899975        0.1502335954       -1.0812212660
 S          4.2136932749       -0.5365278990       -0.0035034700
 O          4.8477578205       -1.6820358115       -0.6257950903
 O          3.5828160028       -0.7751743479        1.2675308213
 C          5.3811248446        0.8013390394        0.1348745574
 C          6.6321650843        0.6973817834       -0.4409545112
 C          7.5108417877        1.7640185117       -0.3300922838
 C          7.1237215236        2.9094088408        0.3483423712
 C          5.8635268004        2.9980873603        0.9218648265
 C          4.9811847251        1.9351574895        0.8157747056
 H          3.9947124157        1.9573658556        1.2502169925
 H          5.5659115325        3.8894531175        1.4504837244
 H          7.8081646629        3.7386742929        0.4333825985
 H          8.4918036193        1.6979674834       -0.7723218164
 H          6.8912083538       -0.2143391726       -0.9546034427
 H          3.6047847552        0.3306937009       -1.9479154767
 H          2.0895268047       -0.4696859802       -3.4509762817
 H         -0.1337264461       -1.4556110182       -3.8510888831
 H         -1.6058067227       -2.0147266340       -1.9531770564
 C         -1.0937792893       -1.6859575136        0.7112199852
 H         -0.5076827268       -1.4866943627        1.6189331555
 C         -1.4785432351       -3.1525774011        0.7084000282
 C         -0.4374842522       -4.1673681322        1.0697414036
 C         -1.5712783514       -3.8877928114        2.0095089123
 H         -2.3422082739       -4.6347706661        2.1251331855
 H         -1.3590730298       -3.3349466424        2.9134349979
 H          0.5447140672       -3.8026831100        1.3344874345
 H         -0.4279269533       -5.1077925038        0.5402857636
 H         -2.1927412744       -3.4133405631       -0.0608294876
 O         -3.6128088780       -1.8302759983       -0.8598997703
