  62
        -98.94162077
 C          2.1218648398       -0.8301787762       -0.2844886433
 C          2.9762409656       -0.2117806981       -1.2323589492
 C          3.7538828126        0.9390291331       -0.7548402600
 C          3.5648453393        1.3815443736        0.5013303280
 C          4.3256160794        2.5078689597        1.1373990239
 C          5.5778428440        1.9919975648        1.8605554665
 C          6.4360960501        1.0504960017        1.0154119742
 H          7.3048797856        0.7751334869        1.6170799254
 H          5.8751228711        0.1328711086        0.8236551384
 C          6.9058678276        1.6454194562       -0.3195049091
 H          6.8140291242        2.7318046079       -0.2932253112
 H          7.9642485337        1.4125111760       -0.4532243793
 C          6.1724782507        1.1049708064       -1.5485241966
 H          6.7213832251        1.4222660871       -2.4390504718
 H          6.1831492924        0.0121435838       -1.5303665792
 C          4.7206035906        1.5704393897       -1.7167964698
 H          4.6730755012        2.6594884493       -1.6519234494
 H          4.3881862269        1.2705635989       -2.7150700924
 H          6.1746828023        2.8513313164        2.1714165353
 H          5.2619520768        1.4549995492        2.7580008363
 H          4.6061045045        3.2284292311        0.3713587145
 H          3.6725107049        2.9975436250        1.8619722292
 O          2.6767561689        0.8156977103        1.3567335930
 C          1.9383579452       -0.3064451311        0.9966805570
 O          1.1756080091       -0.7133086434        1.8916533127
 O          3.0787789047       -0.6023222257       -2.4264109819
 C          1.3271116615       -2.0410760299       -0.7408438407
 C         -0.1245258640       -1.8791267185       -0.3653349476
 C         -0.8236584442       -2.7736741193        0.4329532594
 C         -2.1512320362       -2.5398814758        0.7475368614
 C         -2.8095879712       -1.4207882544        0.2729896205
 C         -2.1179922930       -0.5160226202       -0.5221208129
 C         -0.7910991007       -0.7560315792       -0.8408663439
 H         -0.2502459652       -0.0460384412       -1.4560322952
 N         -2.7778118849        0.6219928772       -1.0198397842
 S         -3.6572002199        1.5699186645        0.0523761099
 O         -3.6878438820        2.8844181501       -0.5531796856
 O         -3.1327973764        1.4933295995        1.3958693013
 C         -5.2922522686        0.8669691797       -0.0119720323
 C         -5.9101588421        0.7679117068       -1.2433052958
 C         -7.1841812337        0.2272700829       -1.3107567316
 C         -7.8162110964       -0.2001747363       -0.1524331167
 C         -7.1839935381       -0.0902049179        1.0765506291
 C         -5.9089187303        0.4490379616        1.1508728846
 H         -5.3754139026        0.5491141843        2.0829250044
 H         -7.6767178982       -0.4223964001        1.9761870117
 H         -8.8075996596       -0.6212952697       -0.2075997862
 H         -7.6790647911        0.1404211216       -2.2645941617
 H         -5.3856593988        1.1152535901       -2.1176587161
 H         -2.1929313420        1.2034114946       -1.6028440424
 H         -3.8407806502       -1.2328490425        0.5235196333
 H         -2.6805536111       -3.2392421546        1.3766115715
 H         -0.3227480928       -3.6397101590        0.8327562997
 H          1.3943798136       -2.0077894744       -1.8416747640
 C          1.9206676705       -3.3754886837       -0.3153452896
 C          3.3901884012       -3.5178214993       -0.0572832666
 C          2.4166900147       -3.6286449024        1.0755914739
 H          2.2475177892       -4.6032357401        1.5097803961
 H          2.3523250874       -2.8182588322        1.7844444252
 H          3.8882064148       -4.4119710580       -0.4009361668
 H          3.9981916096       -2.6269884036       -0.1230328989
 H          1.4414072392       -4.2090433576       -0.8194452884
