  62
        -98.94509361
 C          1.8608497518        1.2689187293       -0.0486390496
 C          3.0592386041        0.8851486319        0.5988615500
 C          3.8114813255       -0.2034802174       -0.0356630053
 C          3.3479587890       -0.7642148958       -1.1676411281
 C          4.0150903344       -1.8649093357       -1.9474683528
 C          3.7219437335       -3.2760202050       -1.4194337548
 C          4.4140586380       -3.6363236761       -0.1042018022
 H          4.2977029654       -4.7130287040        0.0348157729
 H          5.4819536375       -3.4327432682       -0.1888248327
 C          3.8474523705       -2.9164927807        1.1277132477
 H          2.8623460860       -2.5078144366        0.8889300911
 H          3.7052493307       -3.6360529950        1.9373893059
 C          4.7324759913       -1.7933462028        1.6687836717
 H          5.6721409180       -2.2127809965        2.0347424579
 H          4.2192914161       -1.3297526470        2.5154521187
 C          5.0522759617       -0.6936733776        0.6476702128
 H          5.4933131671        0.1514013794        1.1820794711
 H          5.7722330426       -1.0584982150       -0.0846201789
 H          4.0512329442       -3.9843441597       -2.1831182102
 H          2.6412374998       -3.3913106772       -1.3055245584
 H          5.0927154284       -1.6994480810       -1.9647629269
 H          3.6362563544       -1.7951943669       -2.9694019159
 O          2.1915924469       -0.3662439288       -1.7611245868
 C          1.4144906658        0.6511535223       -1.2175307273
 O          0.3756339288        0.8950162169       -1.8560085388
 O          3.4802428010        1.4265811671        1.6569481654
 C          1.0378579535        2.3951385023        0.5451506610
 C         -0.3776797485        1.9669848728        0.8490555137
 C         -1.4462468837        2.8553857387        0.8009338842
 C         -2.7294742905        2.4336222489        1.1027770998
 C         -2.9823387584        1.1168518665        1.4401176739
 C         -1.9241555896        0.2180009000        1.4776413705
 C         -0.6349407096        0.6504982529        1.2057899445
 H          0.1838428238       -0.0572492109        1.2512917678
 N         -2.1747009879       -1.1334683053        1.7674951186
 S         -3.4972663327       -1.8519231919        1.0310556618
 O         -4.6662984682       -1.6479466362        1.8516454299
 O         -3.1119660636       -3.2324700938        0.8303008569
 C         -3.7254631575       -1.0254253335       -0.5353515328
 C         -2.6386153381       -0.8453830501       -1.3667810442
 C         -2.8147434474       -0.1806624219       -2.5690656965
 C         -4.0736307014        0.2765726360       -2.9264511098
 C         -5.1597715954        0.0740198073       -2.0887577000
 C         -4.9855093034       -0.5768296992       -0.8782470445
 H         -5.7972673590       -0.7386820122       -0.1875982827
 H         -6.1380147496        0.4294063774       -2.3700363809
 H         -4.2053609442        0.7966488261       -3.8621319376
 H         -1.9562175525       -0.0064077182       -3.1976431800
 H         -1.6619096215       -1.1984448381       -1.0760904866
 H         -1.3598192134       -1.7250357634        1.6987482907
 H         -3.9760382647        0.7691152904        1.6727693095
 H         -3.5460312497        3.1379510725        1.0667618551
 H         -1.2720301294        3.8823497727        0.5252308058
 H          1.5303177512        2.6438085018        1.4980633014
 C          1.0983482777        3.6102253977       -0.3610312315
 C          1.1315067537        4.9940429838        0.2137446991
 C          2.3640048969        4.4113036270       -0.4074005382
 H          2.6981973175        4.7957451299       -1.3593454500
 H          3.1684188897        4.1012745788        0.2438652286
 H          0.6189459940        5.7839247269       -0.3144731488
 H          1.1083783769        5.0923716868        1.2886714640
 H          0.5703475876        3.4549734757       -1.2952582349
