  62
        -98.93861579
 C          1.8969130736        0.9032308587       -0.0281873740
 C          2.4030686417       -0.4136539091        0.0572138756
 C          3.8307793843       -0.5464254896        0.4049651523
 C          4.5680968608        0.5602325293        0.6140780584
 C          6.0194735347        0.7327654936        1.0118724390
 C          6.9950267348       -0.4389086408        0.9394900400
 C          7.3089564169       -0.9231240455       -0.4757879791
 H          7.8981070122       -0.1548356431       -0.9828789593
 H          7.9271530174       -1.8203822033       -0.4008748647
 C          6.0973387312       -1.2268021100       -1.3535544238
 H          5.5218846507       -0.3129058059       -1.5145548104
 H          6.4652976371       -1.5510165370       -2.3308939804
 C          5.1631824659       -2.3139675710       -0.8258409849
 H          4.4387259235       -2.5368821081       -1.6140385128
 H          5.7323015271       -3.2246627104       -0.6289112184
 C          4.3693275123       -1.9475998493        0.4400144153
 H          3.4984184834       -2.6076402749        0.4950920919
 H          4.9595599041       -2.1111756089        1.3384669395
 H          6.6424316750       -1.2614569926        1.5546616563
 H          7.9317989812       -0.0910803400        1.3834245550
 H          6.4004883897        1.5534437266        0.3957626728
 H          6.0019970502        1.1047458881        2.0422619108
 O          4.0277306597        1.8120090984        0.5298227773
 C          2.6990926061        2.0177551188        0.2071290755
 O          2.3575183083        3.2169975203        0.1668844227
 H         -1.6064885085       -0.6786259893       -0.8631212464
 C         -1.4466006129       -0.4623396728        0.1792434100
 C         -0.4564660419        0.4202254026        0.5790598533
 C         -0.2804051481        0.6528181520        1.9415415804
 C         -1.0599403379        0.0018237448        2.8765850216
 C         -2.0422368212       -0.8864889265        2.4734630715
 C         -2.2320501943       -1.1205305291        1.1177106145
 N         -3.2102647753       -2.0296649831        0.6837622784
 S         -4.2249455074       -1.6456355607       -0.5867989595
 O         -5.3060717357       -2.6009623522       -0.4864561557
 O         -3.4978026602       -1.6342866769       -1.8295512787
 C         -4.8201406722       -0.0109493533       -0.1953744864
 C         -4.2210841109        1.0924939446       -0.7674816862
 C         -4.6520987542        2.3558779348       -0.3939536477
 C         -5.6676565408        2.4929982135        0.5394272144
 C         -6.2630078077        1.3736407043        1.1015124297
 C         -5.8338798865        0.1085695787        0.7356028658
 H         -6.2770835612       -0.7868022002        1.1405079273
 H         -7.0562399175        1.4839278658        1.8232622557
 H         -5.9982349232        3.4783649389        0.8278049504
 H         -4.1917751826        3.2273914364       -0.8316743223
 H         -3.4381347087        0.9463523529       -1.4929553689
 H         -3.7239581680       -2.4756696825        1.4295519550
 H         -2.6465994266       -1.4042445986        3.2027054957
 H         -0.9044567920        0.1866753216        3.9288124912
 H          0.4900835452        1.3443644459        2.2552403555
 C          0.4427126695        1.1400201338       -0.3958502282
 H          0.2760770830        2.2213513452       -0.2833882911
 C          0.2051921396        0.7594892634       -1.8419758273
 C         -0.8419426365        1.4671453399       -2.6462220116
 C          0.6101781259        1.7162155117       -2.9212481465
 H          1.0425423604        1.3185859691       -3.8271820900
 H          1.0348828786        2.6604718805       -2.6120428735
 H         -1.4140140019        0.8969896558       -3.3636065658
 H         -1.3969778476        2.2538401535       -2.1574200243
 H          0.3672032213       -0.2959668757       -2.0304881672
 O          1.6998055822       -1.4389463664       -0.1396205924
