  62
        -98.94527982
 C         -1.7831717597       -0.4021735867        0.8365624700
 C         -2.0632643053        0.1480576030       -0.4397589074
 C         -2.0537329902        1.6182187970       -0.5216565454
 C         -1.7361092101        2.3421083797        0.5653402741
 C         -1.6777182213        3.8412210958        0.6205474922
 C         -0.2732823601        4.3739053995        0.3086290554
 C          0.3424569448        3.8001879558       -0.9676685004
 H          1.3052788672        4.2952661292       -1.1167366901
 H          0.5538329343        2.7367730312       -0.8351497834
 C         -0.5193930317        3.9686632438       -2.2261174552
 H         -1.2646480156        4.7504731418       -2.0703951932
 H          0.1247777161        4.2907029204       -3.0471142501
 C         -1.2106294922        2.6816722874       -2.6821500812
 H         -0.4811904445        1.8670358003       -2.6949594181
 H         -1.5630827495        2.8268530509       -3.7073638336
 C         -2.4152114499        2.2374314363       -1.8418361938
 H         -3.0968613072        3.0799212747       -1.6999941260
 H         -2.9414293586        1.4595759906       -2.4032691039
 H         -0.3310466181        5.4611469462        0.2257556396
 H          0.3862177036        4.1329401994        1.1457651778
 H         -2.3957869586        4.2494669005       -0.0882861938
 H         -1.9579738345        4.1551685876        1.6279946700
 O         -1.4041792135        1.7776187987        1.7555078076
 C         -1.4072419232        0.4002112524        1.9155882776
 O         -1.0564382207        0.0201439989        3.0505501322
 H          0.7148938561       -1.2163618990        0.4381007775
 C          0.3767881737       -2.0167289149       -0.2038299493
 C         -0.8984705867       -2.5354948737       -0.0173177499
 C         -1.3199638057       -3.5724936089       -0.8373141179
 C         -0.4870253039       -4.0521752239       -1.8341578948
 C          0.7615087011       -3.4977077292       -2.0482366803
 C          1.1930645280       -2.4608120755       -1.2283686271
 N          2.4478719502       -1.8562468616       -1.4046037710
 S          2.5857433545       -0.2004660404       -1.1782216302
 O          1.3689169969        0.4972752638       -1.5140188396
 O          3.7613688184        0.1663962967       -1.9411744438
 C          2.9577860154       -0.0264633683        0.5537571231
 C          4.0428792037       -0.7139220070        1.0606803819
 C          4.3484679252       -0.5834053855        2.4056219699
 C          3.5677320175        0.2261696217        3.2174398219
 C          2.4843066871        0.9139158864        2.6932627974
 C          2.1778658553        0.7895742929        1.3478665365
 H          1.3341542040        1.3002478335        0.9085622437
 H          1.8636391852        1.5320640402        3.3224793917
 H          3.8010320046        0.3226610955        4.2660178021
 H          5.1903661288       -1.1150781323        2.8188732149
 H          4.6239099780       -1.3319985398        0.3968495698
 H          2.9582389570       -2.1658220490       -2.2190467452
 H          1.3941090530       -3.8534464804       -2.8473994799
 H         -0.8258165469       -4.8557158382       -2.4707029668
 H         -2.3077158564       -3.9862924479       -0.7173587205
 C         -1.7337029446       -1.9046837044        1.0692341434
 H         -1.1854514764       -2.0209532089        2.0193587806
 C         -3.0867899623       -2.5687328701        1.2706890213
 C         -4.2607523179       -1.7891246549        1.7817645821
 C         -4.2590119724       -2.3056647778        0.3758478898
 H         -4.9129219605       -3.1313491565        0.1350118821
 H         -4.1219830303       -1.6058405174       -0.4325704093
 H         -4.9126728969       -2.2570494823        2.5041724743
 H         -4.1262349541       -0.7280738079        1.9361752613
 H         -2.9847207921       -3.5807806445        1.6506350406
 O         -2.3332214645       -0.5381881515       -1.4586413748
