  62
        -98.94452668
 C         -1.5364275614       -1.4995368178        0.2020399205
 C         -1.7472661069       -0.4526016472        1.1378129374
 C         -2.9833950452        0.3258487950        0.9869576176
 C         -3.8156660906        0.0379283705       -0.0307226051
 C         -5.0971172212        0.7618607097       -0.3248775131
 C         -4.8686258652        1.9454730104       -1.2748725735
 C         -3.7227972542        2.8617123594       -0.8472652131
 H         -2.7857650381        2.3050795579       -0.9136360411
 H         -3.6667730644        3.6761325193       -1.5722542008
 C         -3.8714775080        3.4429711546        0.5656700639
 H         -3.6335156766        4.5082595783        0.5345506894
 H         -4.9072805880        3.3528637658        0.8950882339
 C         -2.9524282654        2.8149649391        1.6153132674
 H         -1.9171989414        2.8476338611        1.2683261753
 H         -3.0067624826        3.4257642436        2.5206918403
 C         -3.2816766088        1.3736501758        2.0236204658
 H         -4.3279743931        1.3120853224        2.3322103704
 H         -2.6562320425        1.1258409372        2.8867242238
 H         -4.6427326664        1.5531593430       -2.2689688811
 H         -5.7941612065        2.5204478473       -1.3384217172
 H         -5.7872955114        0.0583756943       -0.7934750528
 H         -5.5307120648        1.1119486313        0.6101927025
 O         -3.5562105075       -0.9327945392       -0.9393240062
 C         -2.4266428762       -1.7347409365       -0.8471150386
 O         -2.3548097475       -2.5903443383       -1.7492643233
 O         -0.9420003189       -0.1939907004        2.0736004383
 C         -0.3112183585       -2.3722781699        0.4204854653
 C          0.8356156485       -1.9734733276       -0.4766423962
 C          0.7822215834       -2.1432239599       -1.8565759517
 C          1.8559719426       -1.7767765125       -2.6468330970
 C          2.9912116783       -1.2182116881       -2.0845514002
 C          3.0506306981       -1.0364145869       -0.7089479584
 C          1.9807175612       -1.4273778244        0.0847529375
 H          2.0459731118       -1.2832867776        1.1528894856
 N          4.1791476776       -0.4557573824       -0.1004528097
 S          3.9207967228        0.8316160286        0.9447324975
 O          5.2034805085        1.4953041794        1.0291976626
 O          3.3721091344        0.3558395116        2.1870443719
 C          2.7600503150        1.8549200287        0.0595962902
 C          3.2706602010        2.7193111410       -0.8904263571
 C          2.3968504989        3.4491184193       -1.6784698577
 C          1.0288946157        3.2855806259       -1.5199662017
 C          0.5349952936        2.4125655000       -0.5644358968
 C          1.4016910010        1.6915059396        0.2419875724
 H          1.0294284195        1.0197715430        0.9998936947
 H         -0.5281200305        2.2752131780       -0.4408506635
 H          0.3428278220        3.8403180960       -2.1403497111
 H          2.7810821267        4.1339543907       -2.4170054339
 H          4.3408589261        2.8133480230       -0.9812161014
 H          4.9221419574       -0.2329925523       -0.7482327343
 H          3.8247097021       -0.9255880528       -2.7048343650
 H          1.8049440461       -1.9182471071       -3.7157115400
 H         -0.1119247232       -2.5522590953       -2.3008203393
 H         -0.0005250756       -2.1697228415        1.4551447713
 C         -0.6039855756       -3.8551592358        0.2961023920
 C          0.3182475677       -4.8314639107        0.9596600377
 C         -1.0617868182       -4.6148053688        1.5029625669
 H         -1.7980973178       -5.3935942209        1.3725744156
 H         -1.1650691516       -4.0682685374        2.4294357632
 H          0.5325652273       -5.7616406231        0.4564180078
 H          1.1514181557       -4.4315678286        1.5184534940
 H         -1.0327768663       -4.1341186501       -0.6571192874
