  62
        -98.94453541
 C         -2.6252083141       -1.2041809072        0.1476818352
 C         -2.6235672839       -0.2652667364       -0.9122178264
 C         -3.3870699800        0.9701529632       -0.6791335839
 C         -4.0408512041        1.1407739490        0.4834415021
 C         -4.8005134273        2.3749394020        0.8720643623
 C         -3.9016433561        3.3662411019        1.6243772539
 C         -2.5659722528        3.6418906678        0.9328093240
 H         -2.0337308980        4.3811965495        1.5355185342
 H         -1.9592928262        2.7325653707        0.9404549747
 C         -2.6893658801        4.1543664449       -0.5088870770
 H         -3.6955846464        4.5383716813       -0.6815903963
 H         -1.9950003327        4.9864048059       -0.6437407343
 C         -2.3510997769        3.1178095727       -1.5821443103
 H         -1.3812106415        2.6637791701       -1.3572638845
 H         -2.2513994984        3.6392100640       -2.5382772229
 C         -3.3823118112        1.9982437374       -1.7752640279
 H         -4.3758830385        2.4323964796       -1.9026330549
 H         -3.1213951317        1.4609326911       -2.6917129974
 H         -4.4481587690        4.3030880407        1.7467656856
 H         -3.6933367136        2.9609526875        2.6171375388
 H         -5.2063435847        2.8429873219       -0.0225149128
 H         -5.6244493576        2.0797690832        1.5238188505
 O         -4.0425094867        0.2083025127        1.4686535526
 C         -3.3248174892       -0.9663984368        1.3360092295
 O         -3.3938613499       -1.7195159882        2.3273918402
 H         -0.0417374753       -1.2889930258       -1.5186486028
 C          0.3938650660       -1.5570496490       -0.5677826871
 C         -0.3848100883       -2.2063061892        0.3798252712
 C          0.1830809035       -2.5062283152        1.6129517643
 C          1.4948062480       -2.1612546459        1.8876143255
 C          2.2626929562       -1.5017473860        0.9441860010
 C          1.7005339572       -1.1897170151       -0.2862864363
 N          2.4642269787       -0.4837681813       -1.2402504255
 S          2.9826512157        1.0419228462       -0.7516971567
 O          2.0908681093        1.6141532650        0.2318019658
 O          3.1685223173        1.7984277352       -1.9709456893
 C          4.5753884434        0.7230259788       -0.0219680804
 C          4.8288898201        1.1106125435        1.2789661508
 C          6.0781606904        0.8543167634        1.8228808556
 C          7.0458720373        0.2188131620        1.0600440737
 C          6.7757950735       -0.1622349486       -0.2461177741
 C          5.5298176714        0.0923947689       -0.7962779696
 H          5.2790253839       -0.1834334369       -1.8068632044
 H          7.5309370831       -0.6563785566       -0.8358340088
 H          8.0163138540        0.0192834270        1.4862927155
 H          6.2895900518        1.1498696663        2.8380177632
 H          4.0424714549        1.5950714853        1.8355475207
 H          1.9906008696       -0.4054818856       -2.1304242656
 H          3.2808671778       -1.2181820889        1.1562564771
 H          1.9216403631       -2.4014917588        2.8494656919
 H         -0.4219127979       -2.9920811217        2.3650660648
 C         -1.8389810234       -2.5081596324        0.1065433966
 H         -2.2201108257       -3.1098118553        0.9420440864
 C         -2.0373747246       -3.2899039215       -1.1762323717
 C         -1.6902560783       -4.7471972102       -1.1952302383
 C         -3.1250457151       -4.3174794777       -1.2441788369
 H         -3.6684834094       -4.4304040045       -2.1702512741
 H         -3.7322177262       -4.4617877362       -0.3622423625
 H         -1.2460176499       -5.1589044352       -2.0883339326
 H         -1.3239971990       -5.1846552602       -0.2788154001
 H         -1.8473646017       -2.7136234209       -2.0716267955
 O         -2.0253448635       -0.4251279013       -2.0109600494
