  62
        -98.94849149
 C         -2.3490817787       -0.6468124915        0.1717948310
 C         -1.5441840062       -0.0309573379       -0.8160784395
 C         -1.7050946004        1.4223195786       -0.9682053187
 C         -2.5666942420        2.0787774248       -0.1719084043
 C         -2.8312763542        3.5555034320       -0.2191447083
 C         -1.9275966302        4.3288437486        0.7495471500
 C         -0.4442500680        3.9773867065        0.6322466207
 H         -0.2818404385        2.9528328515        0.9763887067
 H          0.0986331647        4.6287741455        1.3216456978
 C          0.1378210254        4.1306415253       -0.7798629436
 H          1.1088509915        4.6244610475       -0.7020955335
 H         -0.5069937413        4.7721955734       -1.3825160425
 C          0.3706924520        2.8040859218       -1.5054816253
 H          0.8941219922        2.1209577909       -0.8319004469
 H          1.0244254436        2.9911072989       -2.3619338745
 C         -0.8872112186        2.1001358088       -2.0314441066
 H         -0.5649256366        1.3073657903       -2.7128415247
 H         -1.4983452216        2.8095757530       -2.5941593155
 H         -2.2488453352        4.1143378071        1.7716127442
 H         -2.0649185548        5.3969113876        0.5675712804
 H         -3.8730737847        3.7234500334        0.0610979723
 H         -2.6775639155        3.9114078107       -1.2362673039
 O         -3.2937225606        1.4621769655        0.7956538107
 C         -3.1813275571        0.0984012353        1.0092821280
 O         -3.8694066475       -0.3295639398        1.9590334521
 O         -0.7392608931       -0.6574435406       -1.5538881580
 C         -2.2661180324       -2.1397905893        0.4460984893
 C         -0.8199350665       -2.5722042691        0.4466182498
 C         -0.3191021070       -3.6298484132       -0.3012228330
 C          1.0288223069       -3.9436417094       -0.2568929506
 C          1.9067737433       -3.1959136140        0.5057416182
 C          1.4141973376       -2.1345963439        1.2566154402
 C          0.0585592955       -1.8556327983        1.2507113456
 H         -0.3109114185       -1.0296262926        1.8419558023
 N          2.2674492539       -1.3101348043        2.0218019148
 S          2.3903638361        0.2911229252        1.5357704707
 O          3.3065110692        0.9019408453        2.4757770349
 O          1.0792470237        0.8788309902        1.4513518197
 C          3.1700160939        0.2109503686       -0.0678915707
 C          4.5164475900        0.5099107803       -0.1574940856
 C          5.1507929972        0.3971498139       -1.3835445634
 C          4.4324977592       -0.0209108822       -2.4939459927
 C          3.0841495138       -0.3222136362       -2.3851811976
 C          2.4397481281       -0.2088452472       -1.1619848694
 H          1.3881728039       -0.4330357868       -1.0654979430
 H          2.5183462283       -0.6482331856       -3.2431235464
 H          4.9252491905       -0.1119188730       -3.4491653704
 H          6.1993426603        0.6330709607       -1.4686569338
 H          5.0311432969        0.8325255575        0.7332359733
 H          3.1986847832       -1.6875369202        2.1363110760
 H          2.9627803862       -3.4211790167        0.5160973755
 H          1.4036196151       -4.7683454588       -0.8436732443
 H         -0.9780353561       -4.1962875306       -0.9383597953
 H         -2.6521159394       -2.2612652971        1.4724639959
 C         -3.1517284042       -2.9876498560       -0.4557669207
 C         -4.3747306692       -2.4116869916       -1.1033040007
 C         -3.1923220318       -2.7913346108       -1.9404334499
 H         -3.2731153236       -3.6640575709       -2.5717317192
 H         -2.5808228269       -2.0052578598       -2.3535996315
 H         -5.2624903865       -3.0243375681       -1.1531045508
 H         -4.5785603518       -1.3621884549       -0.9460862060
 H         -3.2412509919       -4.0072684090       -0.0938383068
