  62
        -98.94716485
 C         -1.6120649740       -1.5660877054       -0.2481893575
 C         -2.7744082570       -1.2275872531        0.4917624070
 C         -3.5550875153       -0.0951484889       -0.0160181034
 C         -3.1583515061        0.5411286617       -1.1328604388
 C         -3.8614860400        1.6980661983       -1.7901177479
 C         -3.5139008076        3.0694819171       -1.1946950600
 C         -4.0889614505        3.3418135793        0.1955998651
 H         -3.9417211667        4.4041333856        0.4004382673
 H         -5.1642491756        3.1609316698        0.1840113899
 C         -3.4399948571        2.5250341377        1.3221521396
 H         -3.2162622250        3.1810121718        2.1662332775
 H         -2.4895583647        2.1116978689        0.9765798359
 C         -4.3084592670        1.3849834693        1.8545116216
 H         -3.7425180423        0.8533100163        2.6236139120
 H         -5.2074707935        1.7941955271        2.3207970328
 C         -4.7323104813        0.3652339452        0.7888593807
 H         -5.1525750471       -0.5071091147        1.2952114436
 H         -5.4956520553        0.7933801652        0.1394904816
 H         -2.4275638416        3.1737995429       -1.1654228236
 H         -3.9013246304        3.8276465247       -1.8792978855
 H         -4.9397892172        1.5432482939       -1.7421311773
 H         -3.5577025660        1.6919764101       -2.8393875431
 O         -2.0488481247        0.1738105066       -1.8257750970
 C         -1.2344204744       -0.8647517587       -1.3929093889
 O         -0.2373019545       -1.0516949153       -2.1165060641
 O         -3.1409943192       -1.8455595943        1.5255597692
 C         -0.7338225864       -2.6857739594        0.2886551556
 C          0.5139880348       -2.0384224320        0.8349572882
 C          0.5055072634       -1.5110523801        2.1235091694
 C          1.5963516566       -0.8150855031        2.6104204680
 C          2.7089566394       -0.6073104179        1.8134362673
 C          2.7190181573       -1.1180030471        0.5225057589
 C          1.6396056902       -1.8498918508        0.0479259394
 H          1.6599853797       -2.2304259844       -0.9607013585
 N          3.8173184742       -0.8499292255       -0.3169024506
 S          4.2948463336        0.7544191405       -0.3927759229
 O          4.8265725072        0.9392392430       -1.7251624173
 O          5.2146405244        1.0270451760        0.6849629365
 C          2.8125358397        1.7257578996       -0.1645063497
 C          2.7722302591        2.6723138530        0.8396623850
 C          1.6173689715        3.4165159237        1.0169164836
 C          0.5242204116        3.2015873040        0.1918536649
 C          0.5821724639        2.2499450232       -0.8140564733
 C          1.7346298885        1.5033595781       -0.9977156375
 H          1.7804894012        0.7502700434       -1.7686667101
 H         -0.2645149231        2.0657735144       -1.4573458774
 H         -0.3773713292        3.7773880366        0.3347308384
 H          1.5700716951        4.1574772671        1.7985205889
 H          3.6423173459        2.8020250328        1.4626312143
 H          3.7051848740       -1.2270152700       -1.2474238242
 H          3.5624002076       -0.0505020072        2.1654482786
 H          1.5775010426       -0.4188631681        3.6141054999
 H         -0.3774843802       -1.6401462750        2.7333384258
 H         -1.2939935188       -3.1186170513        1.1278235090
 C         -0.4716854854       -3.7706480402       -0.7334929098
 C          0.1055375446       -5.0767576860       -0.2783589962
 C         -1.3222147362       -5.0039639298       -0.7270265547
 H         -1.5896506525       -5.4494222488       -1.6735719372
 H         -2.0975612714       -5.0736178570        0.0217123897
 H          0.8207043835       -5.5756183594       -0.9144564360
 H          0.3003003738       -5.1931038920        0.7770568025
 H         -0.1652685222       -3.3917312492       -1.7005395749
