  62
        -98.94266451
 C          1.3560739577        1.1743806073       -0.7612580902
 C          0.9549726119        1.9611559300        0.3433566706
 C         -0.3269605544        2.6767485764        0.2064905577
 C         -1.0624085956        2.5057229858       -0.9049380559
 C         -2.3695809904        3.1529837451       -1.2950007583
 C         -3.4236794033        3.3728910180       -0.2050163126
 C         -3.5158874682        2.2578445613        0.8466648321
 H         -4.5538813565        1.9297391435        0.9319913103
 H         -2.9257140158        1.3903364462        0.5445539105
 C         -3.0410813729        2.7002994487        2.2316196274
 H         -3.4614843506        2.0211376174        2.9773071602
 H         -3.4232604272        3.7024477285        2.4410809689
 C         -1.5249220551        2.6834388137        2.4127840876
 H         -1.1703486837        1.6499192297        2.3601515008
 H         -1.2971498090        3.0537657789        3.4157195205
 C         -0.7326956265        3.5118612323        1.3866930848
 H         -1.2873365414        4.3974162174        1.0837277693
 H          0.1996771780        3.8315404978        1.8605141604
 H         -3.2367267515        4.3204431276        0.2981306087
 H         -4.3841943823        3.4720183893       -0.7142405168
 H         -2.1391832092        4.1144714356       -1.7645319850
 H         -2.7834853707        2.5090701366       -2.0753617787
 O         -0.6604199526        1.6913671862       -1.9238060994
 C          0.5405436418        1.0056227439       -1.8773571956
 O          0.7635055868        0.2889587752       -2.8745456431
 O          1.6437941983        2.0855477230        1.3896657192
 C          2.6495506331        0.3796001784       -0.7063438260
 C          2.5519753056       -0.6251796542        0.4164497459
 C          3.5504458812       -0.8455569990        1.3553592063
 C          3.3552084243       -1.7584983446        2.3782814423
 C          2.1638418448       -2.4504031024        2.4978374795
 C          1.1636547714       -2.2455158494        1.5537977244
 C          1.3787324224       -1.3628448481        0.5100371260
 H          0.6028861463       -1.2122380928       -0.2268217162
 N         -0.0635920077       -2.9225424573        1.6223355647
 S         -1.4566187049       -2.1159434742        1.1572285926
 O         -1.3912866291       -0.7058441039        1.4570587505
 O         -2.5263371513       -2.8495487013        1.8036748301
 C         -1.5671214453       -2.3801810696       -0.5989068821
 C         -1.2283123732       -3.6147522108       -1.1159208273
 C         -1.3420032508       -3.8201480290       -2.4813176054
 C         -1.7934090949       -2.7969030865       -3.3010977301
 C         -2.1370724259       -1.5658987467       -2.7657835314
 C         -2.0261545988       -1.3555831903       -1.4012941278
 H         -2.2674663936       -0.4062807853       -0.9482871742
 H         -2.4756138570       -0.7643761024       -3.4024456024
 H         -1.8738461780       -2.9552633799       -4.3649108137
 H         -1.0739690165       -4.7753028135       -2.9036136745
 H         -0.8751972684       -4.3841072222       -0.4496854293
 H         -0.2049320398       -3.4759736225        2.4549105250
 H          2.0036514362       -3.1384664498        3.3139025197
 H          4.1362372208       -1.9184447190        3.1061501455
 H          4.4746174499       -0.2944979187        1.2957580841
 H          2.7053164352       -0.1737801953       -1.6555703156
 C          3.8479008088        1.2979038153       -0.6018737133
 C          5.1758702448        0.8682614600       -1.1472195278
 C          4.3855385419        1.9301531790       -1.8492396108
 H          4.7324293412        2.9513783312       -1.8010040702
 H          3.9008704307        1.6775687447       -2.7812495650
 H          6.0701040283        1.1629021286       -0.6190132401
 H          5.2354953237       -0.1056612532       -1.6089253399
 H          3.8321329402        1.9013032166        0.2981324760
