  62
        -98.93909325
 C          2.1898243310        1.0825102639        0.5281373858
 C          2.3724654845        0.2860480789       -0.6259110408
 C          3.1775197768       -0.9389349976       -0.4585499287
 C          3.6617610985       -1.2534663513        0.7571803325
 C          4.4710627645       -2.4422906182        1.2328980338
 C          5.1532231712       -3.3738758484        0.2344156433
 C          6.3007501752       -2.7403492567       -0.5514618515
 H          7.1293990162       -2.5519964394        0.1357290984
 H          6.6431729155       -3.4624432123       -1.2958230354
 C          5.9738439063       -1.4231760959       -1.2505440013
 H          5.7269858752       -0.6637451318       -0.5059086758
 H          6.8767410421       -1.0863474261       -1.7669211575
 C          4.8483031966       -1.4913067930       -2.2809265820
 H          5.0633075303       -2.2747087714       -3.0101359636
 H          4.8296618766       -0.5358301618       -2.8117763507
 C          3.4396378847       -1.7281069869       -1.7086860495
 H          2.7099858701       -1.3811366757       -2.4465623449
 H          3.2512710704       -2.7861575573       -1.5412965005
 H          4.4192773461       -3.8038069117       -0.4409777665
 H          5.5693256841       -4.2007930049        0.8164863464
 H          3.7885621953       -3.0373880800        1.8501930114
 H          5.2249064287       -2.0345445861        1.9139828102
 O          3.4135284424       -0.4763178958        1.8535337096
 C          2.6846447887        0.6966774410        1.7713145804
 O          2.5424260346        1.2912117204        2.8600003143
 O          1.8867361083        0.5768548257       -1.7495484211
 C          1.3898532956        2.3713262311        0.4496748281
 C         -0.0279892004        2.0570796000        0.0363558380
 C         -0.6770493539        2.6663423781       -1.0283479059
 C         -1.9713865017        2.3019289252       -1.3590353987
 C         -2.6470156819        1.3376180737       -0.6345341189
 C         -2.0092712926        0.7270672599        0.4379895533
 C         -0.7132879409        1.0919729070        0.7650320130
 H         -0.2133840461        0.6117575854        1.5984844535
 N         -2.6936420096       -0.2433773152        1.1941043287
 S         -3.3682215873       -1.5409595708        0.3649482776
 O         -3.4447597575       -2.6100319236        1.3376062756
 O         -2.6450723519       -1.8300052471       -0.8518422053
 C         -5.0169002096       -0.9862952314       -0.0153087360
 C         -5.8215191157       -0.5743858336        1.0291659099
 C         -7.1095965749       -0.1453300218        0.7520104802
 C         -7.5695722582       -0.1384877220       -0.5566084541
 C         -6.7505141453       -0.5585477145       -1.5934418646
 C         -5.4601948581       -0.9878136244       -1.3232879664
 H         -4.7848881332       -1.3172726266       -2.0969368934
 H         -7.1097312087       -0.5528227052       -2.6100013968
 H         -8.5724531932        0.1962976663       -0.7697119256
 H         -7.7492879770        0.1822737138        1.5556042548
 H         -5.4261355830       -0.5989658144        2.0309117153
 H         -2.1642124530       -0.5774572119        1.9869787064
 H         -3.6530212495        1.0494730000       -0.8923171772
 H         -2.4611124986        2.7768988945       -2.1953611101
 H         -0.1663617043        3.4170996899       -1.6081642244
 H          1.3625361263        2.7719877730        1.4736398480
 C          2.0836632336        3.3729649852       -0.4483761826
 C          1.8710632022        4.8414245283       -0.2404188197
 C          3.1830678165        4.2152501995        0.1228316389
 H          4.0450827302        4.4244153886       -0.4926687755
 H          3.4171589016        4.0825043869        1.1694096092
 H          1.8347768381        5.4853229727       -1.1059927424
 H          1.2148190821        5.1422216279        0.5620926397
 H          2.2084022738        3.0089364539       -1.4613779984
