  62
        -98.93809353
 C         -2.0169575094       -1.3401009108        0.0388201298
 C         -2.5982106194       -0.5680749510        1.0715738700
 C         -3.8417313794        0.1459866491        0.7397187701
 C         -4.3394545594        0.0554216894       -0.5057728899
 C         -5.6129031793        0.6480259196       -1.0559953198
 C         -5.9602702593        2.0875859195       -0.6553558994
 C         -4.7518882193        3.0170342495       -0.4713052392
 H         -3.8494630993        2.5388033995       -0.8568659693
 H         -4.9109950892        3.9265581896       -1.0536159590
 C         -4.5299521592        3.4263861591        0.9866929709
 H         -3.9237141192        4.3354378091        1.0076933311
 H         -5.4965440692        3.6683514090        1.4337966010
 C         -3.8218282293        2.3898988889        1.8580431907
 H         -3.8220605593        2.7590022886        2.8865404308
 H         -2.7759350293        2.3025649389        1.5503565207
 C         -4.4336860093        0.9791869889        1.8403323903
 H         -4.1598262394        0.4829060686        2.7753620402
 H         -5.5180202793        1.0215425289        1.7755713503
 H         -6.5462911993        2.0806093993        0.2625413806
 H         -6.6088032293        2.4842934298       -1.4382866793
 H         -6.4405743794       -0.0102857504       -0.7758784799
 H         -5.5072764593        0.5864425299       -2.1418568798
 O         -3.7222247994       -0.6659095703       -1.4834590301
 C         -2.5501458294       -1.3684807404       -1.2490446202
 O         -2.1011889594       -1.9607159502       -2.2475140904
 O         -2.1030950294       -0.4842398413        2.2285546200
 C         -0.7427417694       -2.1128538309        0.3341418196
 C          0.4023360806       -1.4910607807       -0.4266704403
 C          1.1764116306       -2.1709477505       -1.3562983104
 C          2.1937957906       -1.5170569304       -2.0316177603
 C          2.4693464606       -0.1850859705       -1.7863504999
 C          1.7136284207        0.4990012493       -0.8410920798
 C          0.6936906906       -0.1558141008       -0.1696482299
 H          0.1017595106        0.3776198590        0.5636812802
 N          2.0032858807        1.8456202592       -0.5634158894
 S          3.6114951607        2.2736329191       -0.3810105293
 O          3.6018516308        3.4114158289        0.5117992110
 O          4.2030004007        2.4980724394       -1.6766170993
 C          4.3884798907        0.8688074289        0.3989355103
 C          5.4343157906        0.2250068990       -0.2302438798
 C          6.0031892506       -0.8826302211        0.3778932599
 C          5.5154570206       -1.3275093514        1.5965495998
 C          4.4667008506       -0.6671742415        2.2184806400
 C          3.8961268406        0.4423658786        1.6165930102
 H          3.0816829507        0.9780896586        2.0778538204
 H          4.0881669606       -1.0138275217        3.1667377599
 H          5.9542035805       -2.1935699015        2.0662992096
 H          6.8201718406       -1.3964652510       -0.1022836502
 H          5.7786957407        0.6021223093       -1.1794398897
 H          1.4312428607        2.2468724291        0.1647602207
 H          3.2480367307        0.3396178996       -2.3157755298
 H          2.7792853106       -2.0533818303       -2.7624775704
 H          0.9757110505       -3.2085691505       -1.5638886107
 H         -0.5560739994       -1.9590169312        1.4070553096
 C         -0.9250741795       -3.5926430808        0.0792407792
 C         -0.0423896795       -4.5823703310        0.7771759990
 C         -1.4819808595       -4.4532845511        1.1721029990
 H         -2.1655311296       -5.2453654610        0.9055299388
 H         -1.7154712495       -3.9756636613        2.1125734191
 H          0.2639560404       -5.4679115309        0.2416632388
 H          0.7046241605       -4.1942193612        1.4526058391
 H         -1.2403249095       -3.8100733706       -0.9344030308
