  62
        -98.93171857
 C         -1.9469261306       -1.2765045000       -0.2585261403
 C         -2.4874817905       -0.5748725706        0.8485548900
 C         -2.9033069703        0.8142390796        0.6175789808
 C         -2.7008039302        1.3580483703       -0.5956166589
 C         -3.1184617700        2.7398718506       -1.0134404781
 C         -4.6349580099        2.7714419710       -1.2927568982
 C         -5.4366258298        3.6456935705       -0.3281233877
 H         -5.2809604997        4.6947397507       -0.5880695371
 H         -6.4934785899        3.4198512308       -0.4845584879
 C         -5.1050833999        3.4771198496        1.1576700422
 H         -4.1950364599        4.0297067994        1.3956773526
 H         -5.9135716699        3.9497593994        1.7193406325
 C         -4.9427606102        2.0330832793        1.6494549614
 H         -5.4837482403        1.3428052598        1.0020007810
 H         -5.3934053202        1.9591949088        2.6412003813
 C         -3.4825632403        1.5621885490        1.7865841512
 H         -2.8411167501        2.4156594488        2.0244474417
 H         -3.4169425504        0.8608845885        2.6238981108
 H         -4.8096560198        3.1317320516       -2.3076440580
 H         -5.0092183801        1.7463067410       -1.2546205288
 H         -2.8546464099        3.4515792501       -0.2341183677
 H         -2.5579201199        2.9880039510       -1.9151779879
 O         -2.1559355002        0.6670292208       -1.6282996092
 C         -1.7556809904       -0.6597787093       -1.4952231800
 O         -1.2843172105       -1.1406745288       -2.5416347002
 H          0.6634066194       -1.2027532002       -0.6720814702
 C          0.8571243893       -1.8243653607        0.1902359495
 C         -0.1320750708       -2.6681557308        0.6752991689
 C          0.1473456090       -3.4581524115        1.7841458385
 C          1.3862571990       -3.3962019120        2.3971859186
 C          2.3596091491       -2.5329820719        1.9288515091
 C          2.0905240693       -1.7405010112        0.8178780696
 N          3.0588329194       -0.8599410911        0.3092908401
 S          2.5306212897        0.6098325894       -0.3393802091
 O          1.4676475297        1.1585596690        0.4732521512
 O          2.2490636097        0.4245225002       -1.7402180792
 C          4.0156454098        1.5815601090       -0.1558717884
 C          5.0122911699        1.4572248394       -1.1055662585
 C          6.1840050800        2.1797957292       -0.9454297480
 C          6.3394607300        3.0091357685        0.1555270125
 C          5.3297690000        3.1253961381        1.0990541725
 C          4.1559157799        2.4041335884        0.9458035120
 H          3.3402124799        2.4673200481        1.6482603120
 H          5.4514135201        3.7733958976        1.9519706529
 H          7.2521493101        3.5706062183        0.2775243928
 H          6.9696399700        2.0938080495       -1.6785477780
 H          4.8406196598        0.8076024599       -1.9480192789
 H          3.8428439894       -0.7324614516        0.9350260002
 H          3.3192634591       -2.4674827723        2.4184556692
 H          1.5897972788       -4.0122563926        3.2597346782
 H         -0.6223437211       -4.1050840116        2.1784813981
 C         -1.4905460308       -2.6981931003        0.0194773089
 H         -2.2012942209       -3.0891424706        0.7664988686
 C         -1.5436762509       -3.6237719296       -1.1851969617
 C         -0.3275657609       -4.0393632993       -1.9512339119
 C         -1.0330641611       -5.0306126197       -1.0780632625
 H         -1.5996552412       -5.8206283993       -1.5468221829
 H         -0.5475204912       -5.3164690303       -0.1574791826
 H          0.6289761391       -3.6566913196       -1.6298435716
 H         -0.4183892609       -4.1225107087       -3.0232942719
 H         -2.4469403208       -3.4747912591       -1.7675946916
 O         -2.6251016307       -1.1024648512        1.9866984797
