  62
        -98.94293749
 C         -2.4722054804       -0.2450460677       -0.2645900967
 C         -2.2454468651       -1.4386042763       -0.9937772758
 C         -1.6684698855       -2.5580634480       -0.2446899150
 C         -1.3820814200       -2.4060647978        1.0606254238
 C         -0.7565738029       -3.4415158575        1.9549352581
 C          0.7749757308       -3.4780574678        1.8528237100
 C          1.3242202750       -4.1260977782        0.5807275047
 H          2.3875980662       -4.3078553636        0.7490856989
 H          0.8457026839       -5.0949368287        0.4303969315
 C          1.1676214666       -3.2658556723       -0.6808769319
 H          2.1043715114       -3.2776097614       -1.2435821360
 H          0.9823710454       -2.2300638542       -0.3862888723
 C          0.0635492562       -3.7263946359       -1.6334509979
 H          0.0110529386       -3.0184485501       -2.4645646845
 H          0.3171578737       -4.7079251136       -2.0411709490
 C         -1.3303641094       -3.8094429187       -0.9986097910
 H         -2.0648233001       -3.9221487241       -1.8003073017
 H         -1.3937930228       -4.6761245841       -0.3409437638
 H          1.1484723906       -4.0369856606        2.7145022663
 H          1.1496340829       -2.4533153221        1.9278018893
 H         -1.0288413820       -3.1759903736        2.9788148255
 H         -1.1660108049       -4.4266918746        1.7285433922
 O         -1.6468256939       -1.2590222470        1.7367924857
 C         -2.1363533487       -0.1362578768        1.0870845063
 O         -2.2458486275        0.8625013801        1.8258349152
 H         -0.2887768377        0.8810175688       -1.0731660341
 C         -0.6272340231        1.8572047674       -0.7591216446
 C         -1.9915872174        2.1212130417       -0.7113025758
 C         -2.4086600096        3.3873611459       -0.3271646681
 C         -1.4789095539        4.3465512319        0.0388677529
 C         -0.1292570327        4.0509825145        0.0685759526
 C          0.2984416736        2.7868273892       -0.3225721159
 N          1.6643522362        2.4261033159       -0.2850795723
 S          2.1069729246        1.1088666443        0.6840859552
 O          1.1896279359        0.0157290338        0.5109001041
 O          2.3174197344        1.5760151251        2.0407696703
 C          3.6794327816        0.7000567898       -0.0482690340
 C          4.8446631867        1.1917801854        0.5069646147
 C          6.0550044382        0.8904544428       -0.0977408697
 C          6.0787179583        0.1077212759       -1.2418885923
 C          4.9002763299       -0.3801937130       -1.7868943239
 C          3.6874703555       -0.0807472469       -1.1873947412
 H          2.7477992290       -0.4436142739       -1.5717877316
 H          4.9210663233       -0.9910806596       -2.6750393534
 H          7.0210816787       -0.1263068312       -1.7113189341
 H          6.9728011019        1.2662394436        0.3248928263
 H          4.7792602537        1.7858656089        1.4040702263
 H          2.2457870856        3.2073385601       -0.0060551866
 H          0.5890578958        4.7849169366        0.4033278387
 H         -1.8145704510        5.3282498097        0.3378853305
 H         -3.4604681993        3.6183583953       -0.2839432791
 C         -2.9205178111        0.9801450454       -1.0452187198
 H         -2.7566963467        0.7012589112       -2.1004739891
 C         -4.3951538079        1.3269919849       -0.9159111554
 C         -5.3972268655        0.2944960535       -0.4962963989
 C         -5.0761144183        1.4397724729        0.4139778901
 H         -5.8197549477        2.2124966666        0.5446529540
 H         -4.4813418907        1.2494975949        1.2933162638
 H         -5.0244051753       -0.6850736487       -0.2334972901
 H         -6.3569581901        0.2800918147       -0.9907993525
 H         -4.7191808083        2.0191666553       -1.6872107098
 O         -2.4989738480       -1.5554417656       -2.2240236082
