  62
        -98.93586911
 C          2.3493173590        0.7747199767        0.2401656289
 C          2.3983998171       -0.6400423636        0.3404656073
 C          3.5552433697       -1.2986203637       -0.2746207664
 C          4.4862933538       -0.5569012854       -0.9010993075
 C          5.7103453291       -1.0777138843       -1.6045582635
 C          6.9016497043       -1.3439748213       -0.6742741834
 C          6.7601187030       -2.5692289846        0.2296159123
 H          6.4936260187       -3.4367019896       -0.3748613848
 H          7.7431314819       -2.7632272026        0.6631423667
 C          5.7439524199       -2.4018675744        1.3680429422
 H          6.1799619370       -2.7621930796        2.3025014073
 H          5.5225030293       -1.3410808063        1.5064694336
 C          4.4302677567       -3.1562079768        1.1616898748
 H          4.6211287298       -4.2317085164        1.1549365171
 H          3.7713125428       -2.9367040805        2.0058760278
 C          3.6847589354       -2.7845926860       -0.1268460657
 H          2.6757454013       -3.2015166510       -0.0731448765
 H          4.1932980499       -3.2098442832       -0.9920781184
 H          7.7819830525       -1.4848718551       -1.3055178335
 H          7.0706941403       -0.4561919675       -0.0607152554
 H          5.4590523322       -1.9899907525       -2.1463383376
 H          6.0018672444       -0.3122752580       -2.3268199810
 O          4.4022578477        0.7953319425       -0.9841952289
 C          3.3461870595        1.4997986996       -0.4146665919
 O          3.4320064556        2.7307823101       -0.5714123866
 O          1.5136092469       -1.3222439411        0.9262805267
 C          1.1527615225        1.4586254107        0.8773410800
 C          0.0461922002        1.6415417972       -0.1303317630
 C          0.2715583820        2.2924935626       -1.3401555834
 C         -0.7545976219        2.4425517517       -2.2544042531
 C         -2.0157842070        1.9391342185       -1.9879394884
 C         -2.2516383273        1.2866643616       -0.7835007290
 C         -1.2218073002        1.1466467941        0.1373983643
 H         -1.4125654515        0.6208220766        1.0609594513
 N         -3.5338507516        0.7975077420       -0.4771552588
 S         -3.6606724180       -0.6774933328        0.3397220527
 O         -3.4144316906       -0.4513056011        1.7413149086
 O         -2.8452983614       -1.6769368312       -0.3125488046
 C         -5.3904233087       -1.0300226558        0.0860745294
 C         -5.7648803309       -1.9135876946       -0.9084082469
 C         -7.1133795271       -2.1609598055       -1.1127666887
 C         -8.0592546900       -1.5217363509       -0.3255375132
 C         -7.6680452019       -0.6380363581        0.6695127335
 C         -6.3215353981       -0.3874136502        0.8801423940
 H         -5.9699961698        0.2827679764        1.6470095653
 H         -8.4062907459       -0.1455409769        1.2815384381
 H         -9.1078435965       -1.7161406773       -0.4864903567
 H         -7.4200364203       -2.8501794219       -1.8829941534
 H         -4.9934982777       -2.3937365547       -1.4890655829
 H         -4.1515718840        0.8160682748       -1.2781460131
 H         -2.8127725754        2.0508782944       -2.7074835374
 H         -0.5679849680        2.9501389949       -3.1889040622
 H          1.2578272336        2.6767740288       -1.5524213728
 H          0.7890510855        0.7385441526        1.6288416508
 C          1.5086021026        2.7408448264        1.6176311658
 C          1.0633280817        4.1033593124        1.1880930652
 C          0.4499376074        3.4655772353        2.3958078344
 H          0.6971846127        3.8519194589        3.3729595391
 H         -0.5621406180        3.0979591047        2.3083581986
 H          1.7576163639        4.9181833757        1.3246930403
 H          0.4626844938        4.1889662894        0.2969258436
 H          2.4916795707        2.6820454577        2.0739355041
