  62
        -98.94965610
 C         -1.6868363871       -1.2260261350        0.3395476700
 C         -1.3299326493       -0.1588906528       -0.5174780559
 C         -1.9058759592        1.1476381399       -0.1871171810
 C         -2.6821174571        1.2775150494        0.9036671623
 C         -3.3115825818        2.5526696283        1.3956317044
 C         -4.6349624238        2.9084948348        0.7037518812
 C         -4.5055986564        3.4009084003       -0.7382206364
 H         -5.4737342998        3.8189094803       -1.0211193060
 H         -3.7761614889        4.2104055206       -0.7787125528
 C         -4.1240970099        2.3097155438       -1.7480507487
 H         -4.7654069424        2.3888869140       -2.6286341980
 H         -4.3043866666        1.3270108819       -1.3064180313
 C         -2.6760600048        2.3748496800       -2.2334524758
 H         -2.5050288571        1.5372990399       -2.9140475099
 H         -2.5172465533        3.3009938851       -2.7900078310
 C         -1.6318041904        2.2945918908       -1.1119893385
 H         -0.6497700656        2.1298743080       -1.5623771168
 H         -1.6006080519        3.2303671299       -0.5537464608
 H         -5.1072835592        3.6973683244        1.2937476624
 H         -5.2893366527        2.0342056369        0.7338526080
 H         -3.5058349932        2.4105569980        2.4612066516
 H         -2.6029405586        3.3740488181        1.2824964204
 O         -2.9773020368        0.2325887598        1.7230437419
 C         -2.4900861364       -1.0380182022        1.4620663399
 O         -2.8362047634       -1.9041054755        2.2935586032
 H          0.4884403856       -1.1501394183        1.6352533879
 C          1.0496408277       -1.7238812302        0.9116590843
 C          0.3826857465       -2.5498979232        0.0159448992
 C          1.1354292990       -3.2847615258       -0.8920446893
 C          2.5146703770       -3.1689240297       -0.9176553332
 C          3.1690977824       -2.3047741530       -0.0588631733
 C          2.4252934573       -1.5738901106        0.8599657657
 N          3.0363953118       -0.6600420017        1.7452594560
 S          2.6304906207        0.9570429017        1.5576988568
 O          3.4449086236        1.6606819049        2.5261484783
 O          1.2057667902        1.1281984984        1.6774558125
 C          3.1951491879        1.3596208842       -0.0866247107
 C          2.4388367026        0.9806361326       -1.1774854587
 C          2.9337957979        1.2324920963       -2.4485544121
 C          4.1645860695        1.8497948197       -2.6072920777
 C          4.9114203180        2.2234577803       -1.4998846072
 C          4.4264486695        1.9718659286       -0.2270704734
 H          4.9691808958        2.2455985795        0.6633928289
 H          5.8678028563        2.7053644827       -1.6240214348
 H          4.5423489614        2.0407738786       -3.5993888094
 H          2.3463990440        0.9381599545       -3.3035795173
 H          1.4807978626        0.5038960430       -1.0356375104
 H          4.0441595885       -0.7404452142        1.7764785792
 H          4.2422634505       -2.1928754015       -0.0967533572
 H          3.0855603491       -3.7453062782       -1.6294083090
 H          0.6400931403       -3.9446445733       -1.5854719960
 C         -1.1244764884       -2.6123498658        0.0846222751
 H         -1.4067316630       -3.2229531824        0.9553029838
 C         -1.7544642519       -3.2096430536       -1.1579235213
 C         -1.9752276793       -4.6880507652       -1.2635146254
 C         -3.1413849588       -3.7684859768       -1.0646295539
 H         -3.8204093329       -3.6062553479       -1.8882445866
 H         -3.6182784582       -3.7442246971       -0.0951762032
 H         -1.6686433903       -5.3010770533       -0.4294639335
 H         -1.8577730010       -5.1600533115       -2.2273623940
 H         -1.4949311921       -2.6628090292       -2.0572432107
 O         -0.5632571683       -0.2919384929       -1.5078234993
