  62
        -98.93216495
 C         -2.4006533912       -0.5538240968        0.5080003884
 C         -3.2182187769       -0.4314368301       -0.6405445046
 C         -4.3179072995        0.5523673814       -0.5603587822
 C         -4.4798809041        1.2865134817        0.5549032825
 C         -5.4708971550        2.3802914160        0.8946429899
 C         -6.7341689710        2.5785066732        0.0605447663
 C         -7.7428305195        1.4335078392        0.1419357587
 H         -8.1674160440        1.4141983974        1.1488936576
 H         -8.5550614209        1.6449157823       -0.5570459232
 C         -7.1864389238        0.0421129370       -0.1502414214
 H         -8.0112751026       -0.6711603548       -0.0687241366
 H         -6.4532997592       -0.2274302232        0.6129420371
 C         -6.5545462310       -0.1337019542       -1.5299185930
 H         -7.2633653097        0.1748457586       -2.3007228155
 H         -6.3559953956       -1.2002031153       -1.6662705253
 C         -5.2285214845        0.6148292635       -1.7528368540
 H         -4.6965479415        0.1212742080       -2.5712962101
 H         -5.4004058051        1.6464459001       -2.0501361371
 H         -6.4754019005        2.7832716473       -0.9740601893
 H         -7.2234597404        3.4763940452        0.4479650330
 H         -4.8987214819        3.3146015017        0.8823477638
 H         -5.7550113177        2.2076831270        1.9376028285
 O         -3.6428680445        1.1556942163        1.6266991397
 C         -2.6072317072        0.2422646608        1.6359928554
 O         -1.9500295048        0.2252277768        2.6970809786
 O         -3.0568279245       -1.0949764208       -1.6957022360
 C         -1.2471957292       -1.5383399452        0.6116256177
 C          0.0216989191       -0.9255020695        0.0776993011
 C          0.0884755773       -0.4084259683       -1.2126317194
 C          1.2643238080        0.1464548891       -1.6833691227
 C          2.3906221762        0.2061201762       -0.8806917294
 C          2.3331849177       -0.3009252496        0.4100938137
 C          1.1529161104       -0.8657230513        0.8777948698
 H          1.1087917288       -1.2501546085        1.8882963348
 N          3.4649277735       -0.2222633834        1.2372610794
 S          4.9465527403       -0.7259129918        0.6319414316
 O          4.7836415044       -1.7516832712       -0.3716841824
 O          5.7263567222       -1.0834182562        1.7964896159
 C          5.6345938350        0.7441864489       -0.0989909988
 C          5.7291191279        1.8783008478        0.6835579579
 C          6.2728914223        3.0274921177        0.1325370548
 C          6.7135935359        3.0223429026       -1.1826574298
 C          6.6152114865        1.8744613541       -1.9539040756
 C          6.0708431759        0.7217691549       -1.4091524700
 H          5.9689135831       -0.1919333550       -1.9729047976
 H          6.9589877561        1.8723874082       -2.9758008131
 H          7.1365000323        3.9184222504       -1.6087538056
 H          6.3508116421        3.9221870499        0.7290583184
 H          5.3784218928        1.8408408314        1.7014766475
 H          3.3156985548       -0.5698350102        2.1732942487
 H          3.3076147116        0.6403879211       -1.2442195694
 H          1.3044775560        0.5407467045       -2.6874817347
 H         -0.7896294780       -0.4517366782       -1.8389151698
 H         -1.1064116310       -1.6954456907        1.6930908000
 C         -1.5653969170       -2.8968984727        0.0008579963
 C         -0.8863673090       -3.4522639388       -1.2111520513
 C         -0.5831806852       -4.0228824264        0.1394457692
 H         -0.9514039535       -5.0071812667        0.3863239482
 H          0.3797476845       -3.7911498570        0.5711994565
 H         -1.4872813556       -4.0286096783       -1.8978460353
 H         -0.1250374428       -2.8596096005       -1.6928402664
 H         -2.6128967300       -3.1547615173        0.1188951232
