  62
        -98.93509833
 C         -1.8493972119       -1.5881488537       -0.0959282492
 C         -1.6849824951       -0.2028369414       -0.3340965662
 C         -2.9244386328        0.5743674590       -0.5109504218
 C         -4.1124131682       -0.0513430027       -0.4389968281
 C         -5.4571299091        0.6128385454       -0.5242865379
 C         -5.7900376203        1.3007571868        0.8152208671
 C         -5.8771707833        2.8251478614        0.7369422940
 H         -6.8220219566        3.1023502012        0.2646553344
 H         -5.8977566677        3.2040771698        1.7610115926
 C         -4.7484323974        3.5206553058       -0.0302005831
 H         -4.9356820632        3.4487183740       -1.1026568390
 H         -4.7996174354        4.5815782067        0.2237060140
 C         -3.3289844615        3.0135541007        0.2559418183
 H         -3.2783912101        2.5450903867        1.2390497669
 H         -2.6603150103        3.8762682684        0.2802297864
 C         -2.7709362052        2.0419811708       -0.8007811318
 H         -1.6910763517        2.1966696600       -0.8825719863
 H         -3.2102307846        2.2702180186       -1.7759296058
 H         -5.0294182638        1.0152869758        1.5450660058
 H         -6.7420092981        0.9228786323        1.1912684162
 H         -5.4605071876        1.3350520459       -1.3376796351
 H         -6.1895685347       -0.1642297203       -0.7441953053
 O         -4.2305128678       -1.3824682108       -0.1919585907
 C         -3.1124086972       -2.1774345329       -0.0019498805
 O         -3.3694601045       -3.3719021574        0.2471104482
 O         -0.5673613954        0.3698870141       -0.3984508011
 C         -0.6569934828       -2.5043872173        0.1157753069
 C          0.3510034336       -1.8513766872        1.0307230928
 C         -0.0583481077       -1.4650740256        2.3052457575
 C          0.8271990106       -0.8699633018        3.1814276491
 C          2.1423520277       -0.6515462829        2.8087059591
 C          2.5649601994       -1.0410862101        1.5437240109
 C          1.6709181057       -1.6413905444        0.6653057283
 H          2.0211420612       -1.9150030058       -0.3151471820
 N          3.9076951927       -0.8762589281        1.1663712076
 S          4.3915914871       -0.2884120888       -0.3204181583
 O          3.8312360996       -1.0884602655       -1.3784723390
 O          5.8362148249       -0.2646575270       -0.2382764806
 C          3.7883245384        1.3892896677       -0.4039964823
 C          4.7031816503        2.4204105585       -0.3028062265
 C          4.2509638530        3.7290360322       -0.3390690068
 C          2.8939178957        3.9849304445       -0.4668263579
 C          1.9900882110        2.9386123653       -0.5604896066
 C          2.4340805040        1.6252912155       -0.5313845761
 H          1.7332142931        0.8087045068       -0.5993301971
 H          0.9318097453        3.1237141177       -0.6535295074
 H          2.5385260680        5.0031507593       -0.4932694091
 H          4.9548019601        4.5425982821       -0.2664271588
 H          5.7480272087        2.1735298557       -0.2048478219
 H          4.4949011643       -0.4887881019        1.8908760691
 H          2.8360610409       -0.1871451962        3.4930818478
 H          0.4926177024       -0.5703325098        4.1633353889
 H         -1.0873565123       -1.6329638400        2.5949817952
 H         -1.0633384582       -3.3845287493        0.6423740652
 C         -0.0387521068       -3.0193297096       -1.1757734837
 C         -0.8503196767       -3.1771025054       -2.4258738953
 C          0.2142502777       -2.1260690434       -2.3513243252
 H          1.1273584870       -2.2641667478       -2.9124673033
 H         -0.0885862896       -1.0944423325       -2.2677236500
 H         -0.6766452479       -4.0473003964       -3.0409755788
 H         -1.8836911437       -2.8624203129       -2.3977234100
 H          0.7003435881       -3.7932931847       -0.9896393343
