  62
        -98.93512127
 C         -2.2657721859       -0.4312128095        0.2476505499
 C         -3.5252547843       -0.8622021589        0.7226302104
 C         -4.6629357218        0.0458612782        0.4958349730
 C         -4.4571850020        1.2134597853       -0.1421558593
 C         -5.4054924021        2.3466784863       -0.4752608967
 C         -6.9172037380        2.1539859994       -0.3854634047
 C         -7.5011219787        1.1859702534       -1.4138134157
 H         -8.5624209743        1.0528083520       -1.1931366337
 H         -7.4216538226        1.6416584009       -2.4040077793
 C         -6.8325236200       -0.1847195910       -1.4834799450
 H         -5.7944486715       -0.0712602043       -1.8029204607
 H         -7.3437939711       -0.7670104720       -2.2549224517
 C         -6.8676541096       -0.9961317003       -0.1899476593
 H         -6.5056386004       -2.0011163223       -0.4227853509
 H         -7.8976102941       -1.0846829613        0.1608541629
 C         -6.0032027050       -0.4486409681        0.9590849445
 H         -6.5270606902        0.3254038183        1.5146186513
 H         -5.8025475441       -1.2712924821        1.6515940582
 H         -7.2001804852        1.8578945544        0.6202522558
 H         -7.3658363578        3.1348985893       -0.5646394714
 H         -5.1219230594        3.1733525534        0.1855283893
 H         -5.1442232117        2.6624286413       -1.4902862168
 O         -3.2173526994        1.5893112800       -0.5772858320
 C         -2.1002553209        0.7892789498       -0.4030146511
 O         -1.0468515267        1.2716315699       -0.8621270988
 O         -3.6934048031       -1.9564971992        1.3253992923
 C         -1.0573160733       -1.3272026761        0.4424156732
 C          0.0276869702       -0.5936923495        1.1909626474
 C         -0.3018052958        0.0815061824        2.3639011265
 C          0.6592560974        0.7739179293        3.0734115018
 C          1.9698030682        0.8073139321        2.6302761923
 C          2.3143961568        0.1206394730        1.4724524912
 C          1.3463955733       -0.5797564348        0.7650485143
 H          1.6389802095       -1.0968951979       -0.1326162150
 N          3.6522426744        0.0939691679        1.0402590347
 S          4.0191252117        0.0580617080       -0.6064349924
 O          3.3896516981        1.1625676349       -1.2949132558
 O          3.7458294990       -1.2605964568       -1.1191762089
 C          5.7833791157        0.3105885822       -0.5232078873
 C          6.5914029501       -0.7646805039       -0.2049094405
 C          7.9601499935       -0.5696185715       -0.1116440887
 C          8.4957511657        0.6899353811       -0.3367751007
 C          7.6728238715        1.7589219538       -0.6576702624
 C          6.3025980792        1.5708398626       -0.7509637982
 H          5.6247364878        2.3696979880       -1.0063232547
 H          8.0919291949        2.7361529063       -0.8357208829
 H          9.5615177718        0.8389536781       -0.2644622917
 H          8.6035354483       -1.3987392847        0.1348803741
 H          6.1312490135       -1.7261282168       -0.0480392214
 H          4.2211623178        0.7844267085        1.5120229349
 H          2.7195518303        1.3570479790        3.1788956501
 H          0.3858968220        1.2999124232        3.9759400681
 H         -1.3281997061        0.0634278441        2.7050963987
 H         -1.4075483711       -2.1593602935        1.0720809624
 C         -0.5994598388       -1.8861861862       -0.8882677088
 C          0.0850129844       -3.2176232083       -0.9536909948
 C         -1.3139361840       -3.0680748442       -1.4692072099
 H         -1.4795359261       -3.0971974990       -2.5357726063
 H         -2.1207427517       -3.4913412146       -0.8887617480
 H          0.8897723370       -3.3457162630       -1.6622768678
 H          0.2284514430       -3.7494389284       -0.0252273177
 H         -0.2730289335       -1.1114290871       -1.5751739494
