  62
        -98.94890683
 C         -2.2617772233       -0.7770135339        0.0742126858
 C         -1.5853400078       -0.0676887974       -0.9469404529
 C         -1.9229403448        1.3558725139       -1.0740373808
 C         -2.7991121768        1.9035010046       -0.2129319229
 C         -3.2412489286        3.3380314051       -0.2317927900
 C         -2.3712980198        4.2215205591        0.6712836228
 C         -0.8684690132        4.0513497100        0.4484022199
 H         -0.5603283142        3.0551138059        0.7745071544
 H         -0.3604092788        4.7659927627        1.1008187593
 C         -0.4085073995        4.2665241894       -1.0001535256
 H          0.4987579790        4.8743657436       -0.9881977263
 H         -1.1662907452        4.8220283590       -1.5550588304
 C         -0.0682723856        2.9735598638       -1.7439329802
 H          0.5747252267        2.3591535288       -1.1085457974
 H          0.4998779115        3.2327336449       -2.6415918688
 C         -1.2677204163        2.1250586090       -2.1862939299
 H         -0.9027654971        1.3746016319       -2.8937118898
 H         -1.9963632211        2.7564994313       -2.7001196544
 H         -2.5910282495        3.9773675014        1.7134222848
 H         -2.6496677321        5.2637906705        0.5010263227
 H         -3.2050609669        3.7049694306       -1.2559912439
 H         -4.2730298491        3.3800500404        0.1228901999
 O         -3.3814013571        1.2044882709        0.7964562120
 C         -3.1170299839       -0.1436228675        0.9729331554
 O         -3.6982872655       -0.6604194663        1.9513507458
 H         -0.4006467693       -0.9808918241        1.9140565698
 C          0.1551982546       -1.6929251918        1.3152337208
 C         -0.5249543115       -2.4914943311        0.4036951996
 C          0.2048103044       -3.4037708419       -0.3471208096
 C          1.5821648920       -3.4753703471       -0.2236981535
 C          2.2605055863       -2.6271843981        0.6331072124
 C          1.5342432554       -1.7359964668        1.4104643981
 N          2.2414924907       -0.7968092456        2.2215871636
 S          2.2816811969        0.7034116016        1.4388936894
 O          3.0429832622        1.5780637503        2.3066694838
 O          0.9488867276        1.1666779481        1.1178402593
 C          3.2061498192        0.3345243883       -0.0317032074
 C          4.5844305566        0.4069422813        0.0333444307
 C          5.3266155648        0.0785003916       -1.0889660341
 C          4.6796403710       -0.3198955299       -2.2495591391
 C          3.2960064837       -0.3890917388       -2.2960854700
 C          2.5448267911       -0.0616628817       -1.1773136744
 H          1.4663942871       -0.1166529182       -1.1897325442
 H          2.7873896984       -0.7016398566       -3.1938306482
 H          5.2564200886       -0.5783648721       -3.1236925547
 H          6.4028722221        0.1316278446       -1.0551252679
 H          5.0382115351        0.7253368582        0.9575056262
 H          1.8042606204       -0.6573927771        3.1237783997
 H          3.3357107050       -2.6398295519        0.7065120518
 H          2.1355656721       -4.1813376103       -0.8231968856
 H         -0.3046372246       -4.0445948016       -1.0480232807
 C         -2.0084027412       -2.2655287498        0.2549740025
 H         -2.5053103073       -2.5498751502        1.1939719663
 C         -2.6306593912       -3.0418733334       -0.8867035856
 C         -3.0743232917       -4.4585974813       -0.6824792933
 C         -4.0915764893       -3.3679372159       -0.8279257329
 H         -4.6686015464       -3.3155882800       -1.7388509525
 H         -4.6345414540       -3.0486994443        0.0501072894
 H         -2.9329091531       -4.8906291198        0.2965975106
 H         -2.9575687124       -5.1585102809       -1.4958430452
 H         -2.2192503573       -2.7649608752       -1.8505274486
 O         -0.7570127521       -0.6028171026       -1.7291762050
