  62
        -98.94564660
 C         -1.0980305955       -1.4426383047        0.7550657135
 C         -2.0094833076       -1.4417899132       -0.3279092263
 C         -3.0131054621       -0.3676691683       -0.3170862568
 C         -2.9898878086        0.5493217192        0.6671858862
 C         -3.9271641537        1.7172117022        0.7688721285
 C         -3.3668270923        2.9564468034        0.0575732513
 C         -2.8467772831        2.6828569944       -1.3530916483
 H         -1.9782511095        2.0227349412       -1.2917011925
 H         -2.5002280290        3.6342816902       -1.7615018902
 C         -3.8843505253        2.0724840948       -2.3054412343
 H         -3.8240933887        2.5873857873       -3.2665914678
 H         -4.8889713819        2.2358688602       -1.9133189892
 C         -3.6888122123        0.5819356929       -2.5868212870
 H         -2.6551274878        0.3964988483       -2.8899476679
 H         -4.3305307251        0.3073281363       -3.4284152281
 C         -4.0262802005       -0.3630034901       -1.4270142988
 H         -4.0395385094       -1.3825059071       -1.8234971409
 H         -5.0212540419       -0.1317702212       -1.0410484676
 H         -2.5404173114        3.3477854386        0.6520914580
 H         -4.1517148813        3.7138610859        0.0174060198
 H         -4.8867293368        1.4395762480        0.3363973512
 H         -4.0705321084        1.9498753626        1.8253268046
 O         -2.0773722747        0.5340074813        1.6729928487
 C         -1.1130709522       -0.4577818527        1.7430737256
 O         -0.3396646858       -0.3564645110        2.7166743409
 H          1.3205600840       -0.2907642793        0.2712986446
 C          1.5298029488       -1.0541377459       -0.4648712983
 C          0.9299451977       -2.3013822331       -0.3353203189
 C          1.2078414093       -3.2757365695       -1.2836781733
 C          2.0569881657       -2.9960999915       -2.3410625685
 C          2.6583595714       -1.7570628838       -2.4612744254
 C          2.3947197913       -0.7774883880       -1.5096947631
 N          2.9771633694        0.4968981481       -1.5946665950
 S          3.5389096271        1.2254102203       -0.1941895134
 O          4.5181873300        2.1857682338       -0.6599405746
 O          4.0180655516        0.2455829769        0.7526590689
 C          2.1502173233        2.1186254616        0.4680248142
 C          1.8276502160        1.9805680815        1.8027175714
 C          0.7907468038        2.7368045969        2.3247255573
 C          0.1028043949        3.6178005103        1.5063194491
 C          0.4331346650        3.7398828104        0.1645200942
 C          1.4679171089        2.9854680734       -0.3630258589
 H          1.7584135572        3.0577061529       -1.3979843853
 H         -0.1109987694        4.4219861921       -0.4690298779
 H         -0.6936765369        4.2153587754        1.9223266100
 H          0.5211322319        2.6226982136        3.3621562866
 H          2.3784500187        1.2767943023        2.4065504385
 H          3.6242642671        0.6173596764       -2.3606836244
 H          3.3250599280       -1.5442975076       -3.2832682341
 H          2.2587432214       -3.7579824504       -3.0787851562
 H          0.7529290957       -4.2489587301       -1.2029376402
 C         -0.0071434978       -2.4974537070        0.8322412253
 H          0.5580200333       -2.2848900637        1.7516720787
 C         -0.5928983918       -3.8890174143        0.9298727031
 C          0.2168625459       -4.9975405434        1.5301781387
 C         -0.9514205460       -4.4319737868        2.2790828868
 H         -1.8443136802       -5.0316225754        2.3729746260
 H         -0.7554028119       -3.8041845959        3.1364100476
 H          1.2091468721       -4.7568502819        1.8815943239
 H          0.1257924803       -5.9889111480        1.1128513333
 H         -1.2544915838       -4.1256559195        0.1053296619
 O         -1.9966241164       -2.2942162733       -1.2537983236
