  62
        -98.94275853
 C         -1.8141124294       -0.9892392690       -0.2464646722
 C         -3.1898139601       -1.3211161751       -0.1490013329
 C         -4.1379260508       -0.2570425788       -0.4964857981
 C         -3.6768534485        0.9498280789       -0.8711304542
 C         -4.5148971487        2.1304923571       -1.2804699436
 C         -5.0340508778        2.9664852167       -0.1025407876
 C         -6.1507622719        2.3159446823        0.7149477558
 H         -6.5668388336        3.0905823441        1.3621830398
 H         -6.9472135964        1.9895467870        0.0454283531
 C         -5.6936543282        1.1381906582        1.5870601393
 H         -4.6070575495        1.1666143275        1.6965839666
 H         -6.1184870076        1.2397581133        2.5882868693
 C         -6.1018905120       -0.2375286241        1.0599935031
 H         -7.1904705610       -0.3265259572        1.0714704984
 H         -5.6953125865       -0.9973929751        1.7323698146
 C         -5.6023742583       -0.5448656780       -0.3577729272
 H         -6.1733047303        0.0260257719       -1.0899452171
 H         -5.7520608205       -1.6102142624       -0.5502076491
 H         -5.4133483464        3.9054365503       -0.5122930085
 H         -4.1939680462        3.2053002417        0.5536301214
 H         -3.8765267487        2.7655536071       -1.8984681763
 H         -5.3560729446        1.7904132027       -1.8852845281
 O         -2.3504834047        1.2354122324       -0.9357444143
 C         -1.3869897927        0.2885035372       -0.6080199644
 O         -0.2209325465        0.7165251645       -0.6807420796
 O         -3.6046008355       -2.4535799336        0.2145339620
 C         -0.8040931856       -2.0644535010        0.1087176577
 C          0.2655131514       -1.5123799304        1.0178858181
 C         -0.1150993566       -0.9766124131        2.2464858234
 C          0.8261176408       -0.4645341357        3.1170122149
 C          2.1697062218       -0.4803914472        2.7842454110
 C          2.5626135445       -1.0189192558        1.5653830551
 C          1.6121222442       -1.5331131562        0.6916962021
 H          1.9438930100       -1.9234674772       -0.2551676152
 N          3.9257491378       -1.0951325554        1.2321555853
 S          4.5320519186       -0.6082540111       -0.2474072891
 O          3.8672340854       -1.3117543233       -1.3128713238
 O          5.9588773633       -0.8226922729       -0.1356183816
 C          4.2130282620        1.1447896898       -0.3383887910
 C          2.9245384756        1.5926195089       -0.5491917900
 C          2.6928383007        2.9597754878       -0.5720737689
 C          3.7401370036        3.8485490424       -0.3872830301
 C          5.0284384298        3.3803979118       -0.1750811549
 C          5.2681345411        2.0166461820       -0.1458170574
 H          6.2523623673        1.6067664443        0.0140080651
 H          5.8427813524        4.0722887723       -0.0313450929
 H          3.5503683119        4.9103146088       -0.4085292131
 H          1.6851541676        3.3089907378       -0.7326968812
 H          2.1129973149        0.8962301964       -0.6879423752
 H          4.5440365408       -0.7804258633        1.9664170315
 H          2.9079947425       -0.0832080316        3.4643872090
 H          0.5139029703       -0.0480244752        4.0629212712
 H         -1.1652640389       -0.9635947055        2.5062245419
 H         -1.3849252855       -2.8048354999        0.6853029518
 C         -0.2385087237       -2.8034823656       -1.0947765058
 C         -1.0211878246       -2.9453424636       -2.3649025128
 C          0.2089610036       -2.0912083425       -2.3344160675
 H          1.1022851522       -2.4401529013       -2.8322318269
 H          0.0922383505       -1.0192720648       -2.3646699913
 H         -0.9823767993       -3.8892885283       -2.8875124438
 H         -1.9818723897       -2.4540180706       -2.4208235699
 H          0.3476658538       -3.6686890135       -0.7985436127
