  62
        -98.94177706
 C         -0.5749109113       -1.4784922584        0.0329032785
 C         -1.3347731097       -0.7595089527        0.9815035582
 C         -2.4094882908        0.1012738264        0.4537262210
 C         -2.5768467890        0.2011489991       -0.8782174943
 C         -3.5743388375        0.9803880747       -1.7105005065
 C         -4.7354789010        1.7148817322       -1.0468671416
 C         -5.8257698982        0.7983602734       -0.4882939307
 H         -6.5225511615        1.4037587982        0.0951289025
 H         -6.3799983581        0.3725050410       -1.3284675682
 C         -5.3377020814       -0.3660365935        0.3704912009
 H         -6.2076390740       -0.9717419501        0.6387733929
 H         -4.6718469364       -1.0022036091       -0.2158215229
 C         -4.6315260447        0.0279350774        1.6654413050
 H         -4.4420887222       -0.8876192987        2.2327992032
 H         -5.2884415370        0.6613456401        2.2651973166
 C         -3.2879518036        0.7514755876        1.4841119165
 H         -3.4415717359        1.8024665867        1.2579516619
 H         -2.7415225970        0.6926045815        2.4301313028
 H         -4.3664893199        2.3866399370       -0.2779242506
 H         -5.1960089955        2.3379015388       -1.8181775783
 H         -2.9810287139        1.6998220798       -2.2832144224
 H         -3.9751684025        0.2690144203       -2.4400423955
 O         -1.7561946839       -0.4473470540       -1.7570860436
 C         -0.7644403193       -1.3155757815       -1.3377869258
 O         -0.1361643911       -1.8643724651       -2.2621836163
 O         -1.1321738230       -0.8370738488        2.2242645114
 C          0.4953685754       -2.4423676100        0.5091160137
 C          1.8347795017       -2.0697044971       -0.0749387674
 C          2.7104493588       -2.9895498417       -0.6364483344
 C          3.9212500685       -2.5710430636       -1.1605446774
 C          4.2864424674       -1.2383585413       -1.1281254635
 C          3.4195894016       -0.3101635700       -0.5610261237
 C          2.2096246705       -0.7325626468       -0.0368859806
 H          1.5403587719       -0.0117036189        0.4108467752
 N          3.7380739499        1.0538791130       -0.5455864282
 S          3.1672697423        2.0615555758        0.6515717851
 O          3.9782468836        3.2552426136        0.5288492597
 O          3.1892995834        1.4239071101        1.9477788625
 C          1.4980683831        2.4641389281        0.1824705814
 C          1.1729514668        2.5821382461       -1.1538465624
 C         -0.1110274481        2.9741165896       -1.4964217780
 C         -1.0381264065        3.2536940381       -0.5045817588
 C         -0.6965072593        3.1279862704        0.8323049731
 C          0.5821492372        2.7265129831        1.1815134894
 H          0.8837481702        2.6018566550        2.2095471247
 H         -1.4166816337        3.3401406559        1.6058069319
 H         -2.0319490023        3.5736701450       -0.7746179902
 H         -0.3808654343        3.0634614309       -2.5367096435
 H          1.9162278011        2.3599005941       -1.9015319021
 H          4.6658744172        1.2961803763       -0.8587517680
 H          5.2286181442       -0.9134084298       -1.5422315243
 H          4.5910928005       -3.2943294089       -1.6003418378
 H          2.4434786484       -4.0328638808       -0.6715656055
 H          0.5506821009       -2.3082222245        1.6002584253
 C          0.0798360610       -3.8686467416        0.2118992455
 C          0.5374643549       -4.9919539376        1.0922283241
 C         -0.8921786747       -4.5449701354        1.1298328602
 H         -1.6469492272       -5.1868768436        0.7008415629
 H         -1.2323708087       -3.9850776330        1.9888833597
 H          0.7626181840       -5.9451045097        0.6379259850
 H          1.1679423826       -4.7432369772        1.9325969717
 H         -0.0217220315       -4.0572981474       -0.8512670098
