  62
        -98.94099424
 C         -2.1090084695       -1.3149532095        0.2460022907
 C         -1.5713015499       -0.3133171355       -0.6018832057
 C         -2.3283888684        0.9473001244       -0.6480921199
 C         -3.4958366781        1.0613463539        0.0097624072
 C         -4.4112207612        2.2556209996       -0.0045726657
 C         -4.0592450729        3.3271171235        1.0358359637
 C         -2.7915901470        4.1264922429        0.7338319641
 H         -2.8534888626        4.5363633359       -0.2745777688
 H         -2.7684638662        4.9688233726        1.4279623342
 C         -1.4922146814        3.3231591125        0.8859886227
 H         -0.7635846252        3.9103131488        1.4503662998
 H         -1.6916838769        2.4200292566        1.4685457167
 C         -0.8298266727        2.9308971586       -0.4352029394
 H         -0.5103690580        3.8330487924       -0.9603364296
 H          0.0624601830        2.3407759001       -0.2085129190
 C         -1.7140036294        2.1029162960       -1.3777843863
 H         -1.0811889810        1.6991830370       -2.1715870868
 H         -2.4844043846        2.7315883648       -1.8230957136
 H         -4.9001214380        4.0224254847        1.0876432884
 H         -3.9645684303        2.8479080615        2.0132700610
 H         -4.4165733631        2.7008369752       -0.9996859385
 H         -5.4133325231        1.8805572524        0.2149312730
 O         -4.0039541043        0.0567586280        0.7726499514
 C         -3.2989012738       -1.1224509202        0.9536687635
 O         -3.8298099266       -1.9157517826        1.7570625585
 O         -0.5195069904       -0.4407780141       -1.2784520538
 C         -1.4281916833       -2.6544403277        0.4559050026
 C          0.0682101726       -2.5204394045        0.6278179896
 C          0.9505126195       -3.5159627940        0.2237557777
 C          2.3135726596       -3.3755065186        0.4187856453
 C          2.8338114779       -2.2285562260        0.9878129674
 C          1.9644489784       -1.2146568710        1.3717231556
 C          0.5958372183       -1.3845953295        1.2286168082
 H         -0.0716693330       -0.6007390102        1.5648714730
 N          2.4791885450       -0.0190145640        1.9095484092
 S          3.6695617611        0.8098828383        1.0704846225
 O          4.8735037026        0.0160346023        1.0691895219
 O          3.7563757752        2.0942694088        1.7287264531
 C          3.0893192365        1.0288582043       -0.6023402275
 C          2.6089155207        2.2681073190       -0.9745286550
 C          2.1366874089        2.4460783169       -2.2648329652
 C          2.1376230273        1.3819973346       -3.1519100859
 C          2.6253919796        0.1445852097       -2.7638525206
 C          3.1134267185       -0.0362932602       -1.4805539301
 H          3.5079497380       -0.9841600492       -1.1555517428
 H          2.6230084849       -0.6836005968       -3.4539012841
 H          1.7561004414        1.5170126832       -4.1519245608
 H          1.7609864551        3.4097217717       -2.5696545420
 H          2.6236714931        3.0683414428       -0.2514696326
 H          1.7610032441        0.6308449475        2.1950504124
 H          3.8946156191       -2.0920940868        1.1240040131
 H          2.9813404886       -4.1665406827        0.1127015854
 H          0.5753298866       -4.4078297238       -0.2495025588
 H         -1.8351047043       -3.0308642366        1.4098318468
 C         -1.7945144542       -3.6851779006       -0.6099248221
 C         -2.8802918849       -3.4392430620       -1.6138644283
 C         -1.4480243650       -3.4566513759       -2.0500043861
 H         -1.0987451734       -4.2917520989       -2.6390291017
 H         -0.9815512228       -2.5147226551       -2.2935995806
 H         -3.5158235370       -4.2696321926       -1.8844490073
 H         -3.3959664681       -2.4902367120       -1.5852818337
 H         -1.7226049089       -4.7044565657       -0.2446464443
