  62
        -98.94414373
 C          2.2607288452        0.9076672883        0.3827778612
 C          2.4081649569       -0.0160559362       -0.6805750575
 C          3.2300998189       -1.1968792047       -0.3857310462
 C          3.7529933437       -1.3600029007        0.8430981175
 C          4.5918211162       -2.5221112165        1.3016853253
 C          6.0803694748       -2.3953815846        0.9493666186
 C          6.4187586966       -2.5907869577       -0.5290853070
 H          7.5035593212       -2.6936120367       -0.5976471157
 H          5.9805492864       -3.5254800025       -0.8803193462
 C          5.9738879233       -1.4370422770       -1.4387643073
 H          6.7886996046       -1.1733832075       -2.1167354209
 H          5.7651790476       -0.5535507167       -0.8309843692
 C          4.7493158895       -1.7448216857       -2.3004882593
 H          4.9893426196       -2.5424000945       -3.0069743148
 H          4.5004329473       -0.8490831387       -2.8749734940
 C          3.5046731973       -2.1568421058       -1.5036416014
 H          2.6435577852       -2.1356158272       -2.1760692063
 H          3.6230398553       -3.1689189641       -1.1171320437
 H          6.6161846443       -3.1530215490        1.5258514555
 H          6.4348598020       -1.4157692474        1.2782911609
 H          4.1954307695       -3.4479198078        0.8836115234
 H          4.4978490951       -2.5633047869        2.3891417629
 O          3.5516047853       -0.4674508196        1.8504235125
 C          2.8159197551        0.6889852399        1.6423176657
 O          2.7184883472        1.4241192800        2.6474752871
 O          1.8802008279        0.1324336617       -1.8120986486
 C          1.4480065597        2.1717017944        0.1735492630
 C          0.0334711244        1.8264942880       -0.2279693572
 C         -0.6596911055        2.4992618915       -1.2255800512
 C         -1.9606477349        2.1432016706       -1.5370458480
 C         -2.5974885302        1.1159247079       -0.8660541644
 C         -1.9196420004        0.4464534133        0.1446205284
 C         -0.6197409808        0.8112093096        0.4598334737
 H         -0.0940341252        0.2896206783        1.2514230079
 N         -2.5495174094       -0.6092679022        0.8256655282
 S         -4.1016723416       -0.3736827432        1.4184227745
 O         -4.3380932471        1.0126030413        1.7491725859
 O         -4.2400717049       -1.3247997500        2.4998367820
 C         -5.1537966212       -0.8706947534        0.0709721625
 C         -6.1299255738       -0.0122031315       -0.3955880679
 C         -6.9423684287       -0.4261236119       -1.4398626688
 C         -6.7658509542       -1.6842926030       -1.9948492058
 C         -5.7826544160       -2.5355815998       -1.5126097192
 C         -4.9679588934       -2.1285260414       -0.4682800859
 H         -4.1944187644       -2.7597981217       -0.0635547970
 H         -5.6478099311       -3.5131698765       -1.9467889320
 H         -7.3981773346       -2.0039324195       -2.8080219287
 H         -7.7075566449        0.2336843673       -1.8159652930
 H         -6.2262610170        0.9590676379        0.0629396904
 H         -1.9644380955       -1.0523044002        1.5188632064
 H         -3.6071097109        0.8308572559       -1.1122626462
 H         -2.4846656985        2.6704860903       -2.3194891825
 H         -0.1799960166        3.3003990952       -1.7632891059
 H          1.4079093099        2.6748848209        1.1514938483
 C          2.1501601111        3.0811693981       -0.8140789839
 C          2.0134910389        4.5692287757       -0.7051785458
 C          3.3060403488        3.9064669067       -0.3373078327
 H          4.1565580601        4.0309515090       -0.9906528744
 H          3.5668680137        3.8346165355        0.7090320819
 H          1.9799813050        5.1523229207       -1.6131352433
 H          1.3999849454        4.9587244101        0.0933015653
 H          2.2225698975        2.6419982172       -1.8023784754
