  62
        -98.93636151
 C         -1.1749910439       -1.2817930178        0.7389367420
 C         -1.4569736322       -0.6478976689       -0.4950732011
 C         -2.3636221122        0.5195175088       -0.4411460899
 C         -2.7393306643        1.0129312110        0.7519057819
 C         -3.5838922970        2.2152171823        1.1198218561
 C         -4.3992444783        2.9465173401        0.0571359950
 C         -5.5880315135        2.1522490633       -0.4853408898
 H         -6.3500573485        2.0946001511        0.2960913601
 H         -6.0163523689        2.7027851794       -1.3255912920
 C         -5.2798611423        0.7245217062       -0.9297192384
 H         -6.2188252402        0.2629250706       -1.2473171066
 H         -4.9110681281        0.1474810582       -0.0793209145
 C         -4.2886106475        0.5986668889       -2.0843870519
 H         -4.2653804533       -0.4525779884       -2.3850398620
 H         -4.6442499103        1.1797978666       -2.9375714306
 C         -2.8455406945        1.0278032125       -1.7700872745
 H         -2.1913829165        0.5785609691       -2.5232353330
 H         -2.7368464207        2.1067616864       -1.8433756813
 H         -3.7560478406        3.2753419371       -0.7537860070
 H         -4.7950194175        3.8486484408        0.5313819158
 H         -4.2559191482        1.8791757849        1.9160736948
 H         -2.8945320796        2.9286200836        1.5845442023
 O         -2.3078719709        0.4567744579        1.9230953913
 C         -1.5641571582       -0.7066451293        1.9500086400
 O         -1.2990456281       -1.1152875710        3.0993790603
 H          1.6592509746       -1.0524337679        1.7046130527
 C          1.9032320275       -1.4932725925        0.7451487955
 C          0.9767733134       -2.3291198694        0.1336132046
 C          1.2912607053       -2.8801195548       -1.1007974004
 C          2.5018892852       -2.5908555530       -1.7070807055
 C          3.4250066277       -1.7628221967       -1.0933230610
 C          3.1208216563       -1.2136777584        0.1452424636
 N          4.0595010093       -0.3667786970        0.7806751094
 S          4.3073564405        1.1177527747        0.0471146892
 O          4.8873212553        0.9031501342       -1.2529235651
 O          5.0937973995        1.8882284721        0.9832895524
 C          2.6786289449        1.8256611215       -0.1117334607
 C          2.1940661036        2.6131658710        0.9134387164
 C          0.9080012821        3.1191050625        0.8189220109
 C          0.1312493271        2.8232702746       -0.2904864850
 C          0.6301480429        2.0253647397       -1.3081583640
 C          1.9150138813        1.5159443536       -1.2188741496
 H          2.3327960996        0.8902773819       -1.9905870196
 H          0.0212921176        1.7849450923       -2.1640022504
 H         -0.8704815991        3.2162342235       -0.3617680635
 H          0.5153093808        3.7391343618        1.6091163581
 H          2.8345174981        2.8267676940        1.7544582914
 H          3.8486637648       -0.2129760608        1.7574051148
 H          4.3657432867       -1.5174847519       -1.5589865709
 H          2.7301441901       -3.0157381754       -2.6727897559
 H          0.5738652025       -3.5118739568       -1.5981837400
 C         -0.3392202864       -2.5479622006        0.8347305182
 H         -0.1272930855       -2.6592611122        1.9104798594
 C         -1.0487282147       -3.8231928285        0.4068868324
 C         -2.4986525133       -4.0263103930        0.7306797864
 C         -2.0611558416       -3.8860666126       -0.6947196156
 H         -2.0730171676       -4.7669128143       -1.3202605052
 H         -2.2974595845       -2.9763410696       -1.2211720478
 H         -3.0232665253       -3.1989360766        1.1871506968
 H         -2.8201815197       -4.9949869881        1.0825350335
 H         -0.4052159766       -4.6906624687        0.5203943515
 O         -0.9949547966       -1.0222334977       -1.6011423451
