  62
        -98.94038529
 C         -1.2048381332       -1.8003785963       -0.3833211684
 C         -1.2590792463       -0.4797460726       -0.8921267198
 C         -2.5201703071        0.2544731495       -0.6727870653
 C         -3.5089848020       -0.3124430633        0.0374702565
 C         -4.8862919385        0.2207278934        0.3477167582
 C         -5.0182414499        1.7057374639        0.7046764891
 C         -3.8433230335        2.2851065443        1.5056808083
 H         -3.1891211850        1.4830171519        1.8534217746
 H         -4.2309404900        2.7940898756        2.3904147364
 C         -3.0162379203        3.2927800019        0.7052443686
 H         -2.4531678764        3.9164645512        1.4043502875
 H         -3.6949495056        3.9466194761        0.1522681014
 C         -2.0054216177        2.6779777527       -0.2616703717
 H         -1.2023918616        2.1992977028        0.3066617815
 H         -1.5564423731        3.4913386959       -0.8371387168
 C         -2.5720137707        1.6417574013       -1.2458907558
 H         -1.9224400800        1.6278683392       -2.1252683408
 H         -3.5786723718        1.9072814713       -1.5607418015
 H         -5.9384970473        1.8092256536        1.2823028157
 H         -5.1510755993        2.2901469983       -0.2045768210
 H         -5.2419538245       -0.3878338409        1.1829780968
 H         -5.5327835932        0.0002812524       -0.5072174215
 O         -3.3883709227       -1.5617543450        0.5707987194
 C         -2.2577665975       -2.3289844595        0.3672371233
 O         -2.3098662117       -3.4602763145        0.8936756549
 O         -0.3265115275        0.0793105771       -1.5278790494
 C         -0.0179030190       -2.7345963469       -0.5669498180
 C          1.0495733128       -2.4664434633        0.4658397261
 C          1.5114754153       -3.4736203826        1.3046834437
 C          2.4875451954       -3.2069405989        2.2487457978
 C          3.0096981219       -1.9328009466        2.3818019208
 C          2.5525993157       -0.9196148281        1.5465000283
 C          1.5914247536       -1.1954786545        0.5863726729
 H          1.2350012423       -0.4058833244       -0.0534911569
 N          3.0671140927        0.3818861895        1.6344545419
 S          2.0737055680        1.7016934741        1.3577003969
 O          2.7056202108        2.7876165298        2.0823007387
 O          0.7056593079        1.4260245455        1.7341910137
 C          2.2050846779        2.0554158935       -0.3829390587
 C          1.4948611378        3.1455520682       -0.8435682750
 C          1.5660708177        3.4790267541       -2.1855138414
 C          2.3499899645        2.7219284848       -3.0414519232
 C          3.0677272566        1.6392145092       -2.5607220481
 C          3.0001113717        1.2996982051       -1.2183493719
 H          3.5432935744        0.4560567042       -0.8254233043
 H          3.6771707353        1.0505623205       -3.2278846099
 H          2.3993841582        2.9764701781       -4.0886019427
 H          1.0078652684        4.3230587552       -2.5586397734
 H          0.8977241392        3.7068024750       -0.1425324147
 H          3.7065718267        0.5479026335        2.3972298159
 H          3.7609076849       -1.7206930597        3.1274013899
 H          2.8377693732       -3.9963615629        2.8964819778
 H          1.0879756212       -4.4642148797        1.2258988955
 H         -0.4079615565       -3.7463149715       -0.3889824708
 C          0.5736009212       -2.6856947975       -1.9631572327
 C          1.3682235106       -3.8552480255       -2.4574806568
 C          0.0117258809       -3.5742906934       -3.0298586548
 H         -0.0579822835       -3.1894122694       -4.0359783147
 H         -0.8034149898       -4.2289438311       -2.7565482726
 H          2.2344345913       -3.6654605127       -3.0721557266
 H          1.4731272762       -4.7044849251       -1.7992972359
 H          0.8930972550       -1.6946248660       -2.2563597946
