  62
        -98.94375048
 C         -1.4761252238       -1.2605185835        0.7123080641
 C         -2.5284866760       -1.1770430294       -0.2313389985
 C         -3.4221910992       -0.0153652076       -0.0895652482
 C         -3.1521300784        0.9228669533        0.8356108122
 C         -3.9460207230        2.1805158457        1.0397791303
 C         -3.4236069516        3.3333279669        0.1705121596
 C         -3.2222916664        2.9618724619       -1.2982593262
 H         -2.8698743120        3.8565944126       -1.8161391046
 H         -2.4314199300        2.2120339126       -1.3756933288
 C         -4.4786971748        2.4249445940       -1.9965133052
 H         -5.3665208945        2.6871676570       -1.4199124364
 H         -4.5724837598        2.9058750038       -2.9724654728
 C         -4.4599739978        0.9152011059       -2.2402298518
 H         -3.5285175937        0.6347423480       -2.7385083775
 H         -5.2801922805        0.6692964554       -2.9200016451
 C         -4.6236569036        0.0390995679       -0.9921182478
 H         -5.5051951151        0.3604678605       -0.4330582485
 H         -4.7883729420       -0.9878049950       -1.3314323888
 H         -4.1289353318        4.1633110928        0.2414866921
 H         -2.4655559598        3.6695839963        0.5727808324
 H         -4.9902110017        1.9828465203        0.8038657462
 H         -3.8706005501        2.4664570013        2.0902084972
 O         -2.0878850085        0.8460690585        1.6746045227
 C         -1.2401459435       -0.2461455900        1.6461747710
 O         -0.3241152091       -0.2073851092        2.4908880261
 H          1.9691066757       -1.4884160906        1.3009824013
 C          1.8305437439       -1.6260667306        0.2367353414
 C          0.6204484198       -2.1196603327       -0.2311733827
 C          0.4413776825       -2.2546219784       -1.6037129844
 C          1.4548230837       -1.9084524583       -2.4798652384
 C          2.6623009903       -1.4201186425       -2.0098840759
 C          2.8450173076       -1.2736061246       -0.6420233052
 N          4.0651164659       -0.7425390395       -0.1602495423
 S          4.2864168797        0.8927263683       -0.4543923437
 O          4.3094308238        1.1054562997       -1.8784552547
 O          5.4791464120        1.2645304003        0.2712117584
 C          2.8582659556        1.6801009384        0.2661194362
 C          1.6839753744        1.7252214901       -0.4577845852
 C          0.5560213957        2.2670305534        0.1355353375
 C          0.6170629319        2.7444900536        1.4346824263
 C          1.8034940005        2.6901489538        2.1483550760
 C          2.9352252647        2.1481645385        1.5623966497
 H          3.8779793768        2.0864353029        2.0825676082
 H          1.8439056353        3.0571447344        3.1612788368
 H         -0.2697003497        3.1465050634        1.8989028363
 H         -0.3714586055        2.3023965351       -0.4141214841
 H          1.6692500391        1.3420272704       -1.4657382024
 H          4.1998707753       -0.9089323110        0.8280940501
 H          3.4534510938       -1.1260025656       -2.6801666120
 H          1.3023962350       -2.0163257216       -3.5432091188
 H         -0.5081140173       -2.6045193751       -1.9780492319
 C         -0.4843053896       -2.4146721483        0.7531282480
 H         -0.0454356179       -2.3915330496        1.7597141384
 C         -1.1115064476       -3.7761404854        0.5406379527
 C         -0.3459386718       -4.9934779333        0.9608523691
 C         -1.5585899317       -4.5672946748        1.7313537877
 H         -2.4584615000       -5.1579800097        1.6482227460
 H         -1.4140950333       -4.1293506989        2.7085519090
 H          0.6219376025       -4.8439976739        1.4156100188
 H         -0.4103887210       -5.8793085124        0.3479723217
 H         -1.7177721278       -3.8456138445       -0.3517064554
 O         -2.7397282039       -2.0164375455       -1.1451300610
