  62
        -98.94412090
 C          2.1943169821        0.7709217505       -0.0170918627
 C          2.8881485333        0.0482867194        0.9817304505
 C          3.7013614817       -1.0808105438        0.5110652889
 C          3.7114008451       -1.3813415110       -0.8008397939
 C          4.5385051912       -2.4673382947       -1.4243348755
 C          5.9059761458       -1.9336609451       -1.8740308880
 C          6.6365127362       -1.1242239107       -0.8025538536
 H          7.6000213123       -0.8257359166       -1.2211196990
 H          6.0754710623       -0.2084058052       -0.6028937097
 C          6.8634532029       -1.8759257696        0.5165303544
 H          6.7496652874       -2.9487307032        0.3566231273
 H          7.8905009588       -1.7044228989        0.8454818709
 C          5.9504507745       -1.4355486372        1.6622977908
 H          6.3352583810       -1.8677704812        2.5898820392
 H          5.9915947595       -0.3483450456        1.7667282880
 C          4.4791660030       -1.8519592129        1.5402621064
 H          4.4150970117       -2.9252108314        1.3487846604
 H          3.9944597030       -1.6452763466        2.4992928349
 H          6.5238283418       -2.7808563328       -2.1770488252
 H          5.7572245665       -1.2919946377       -2.7454738869
 H          4.6701131644       -3.2749656437       -0.7067905314
 H          4.0034273899       -2.8500265635       -2.2950368139
 O          2.9954596995       -0.6918343339       -1.7250811436
 C          2.2258943942        0.4047393237       -1.3630036460
 O          1.6292291761        0.9492323241       -2.3096773977
 O          2.8253568414        0.3307802110        2.2100024042
 C          1.3570677629        1.9691396545        0.3888593803
 C         -0.0926168687        1.7558771874        0.0266350731
 C         -0.8874323787        2.7404602847       -0.5451848177
 C         -2.2181539635        2.4888820321       -0.8324517502
 C         -2.7851445730        1.2589742484       -0.5558804887
 C         -2.0032315483        0.2703497066        0.0276165365
 C         -0.6728189438        0.5272121994        0.3186680594
 H         -0.0667943408       -0.2447873751        0.7785004225
 N         -2.5710953598       -0.9869562236        0.3078176722
 S         -3.9564049944       -1.0141527183        1.2601047115
 O         -3.9912465581        0.1062728351        2.1717823225
 O         -3.9784073639       -2.3309380115        1.8591839321
 C         -5.2893825941       -0.8881983587        0.0870460486
 C         -5.3614326470       -1.8297937242       -0.9208474245
 C         -6.3988729977       -1.7512107267       -1.8361158513
 C         -7.3427849981       -0.7407247231       -1.7265128330
 C         -7.2583185370        0.1946222769       -0.7065768233
 C         -6.2221592085        0.1227309923        0.2115752406
 H         -6.1116701040        0.8307090230        1.0173020575
 H         -7.9931927949        0.9790595590       -0.6230342132
 H         -8.1489207285       -0.6822541031       -2.4406551444
 H         -6.4675993409       -2.4765439902       -2.6307994935
 H         -4.6096728072       -2.5999880030       -0.9686061607
 H         -1.9019325765       -1.6612354314        0.6509397016
 H         -3.8185742321        1.0572781758       -0.7856278662
 H         -2.8213991165        3.2622036249       -1.2827411700
 H         -0.4644104833        3.7056779098       -0.7696004383
 H          1.4251864143        2.0144210495        1.4868681423
 C          1.9455687176        3.2405815494       -0.1867822036
 C          1.7944395542        4.5426417102        0.5397521881
 C          3.1277480595        3.8606899886        0.4939068358
 H          3.9086111458        4.2894842210       -0.1160640627
 H          3.4896279904        3.3814207123        1.3921706552
 H          1.6622277108        5.4441173703       -0.0392988188
 H          1.2536662320        4.5341150564        1.4741388681
 H          1.9298660411        3.2508794544       -1.2708324462
