  62
        -98.94385415
 C         -1.8488110141        1.0898995224        0.5105925217
 C         -1.9327598376       -0.0407022534       -0.3383990035
 C         -3.2517358373       -0.2879176811       -0.9359158401
 C         -4.2704215350        0.5549703548       -0.6874351421
 C         -5.6621324151        0.4532148031       -1.2504829438
 C         -6.5848502973       -0.4926432506       -0.4697999685
 C         -6.2837710668       -1.9821207131       -0.6408483985
 H         -7.1294727044       -2.5299058822       -0.2202359060
 H         -6.2375629968       -2.2222328667       -1.7036161613
 C         -4.9970384367       -2.4511918153        0.0523939393
 H         -4.6880962935       -1.7054755738        0.7884804580
 H         -5.1948841083       -3.3765521177        0.5980570860
 C         -3.8292232258       -2.7247314527       -0.8955104555
 H         -2.9632326038       -3.0142812122       -0.2953227997
 H         -4.0788378340       -3.5609236642       -1.5524144411
 C         -3.4260164972       -1.5254559348       -1.7636252309
 H         -2.4654918339       -1.7482123748       -2.2349313316
 H         -4.1675570803       -1.3610580500       -2.5452262966
 H         -6.5383459651       -0.2302823080        0.5897388054
 H         -7.6056311029       -0.3080762297       -0.8126476174
 H         -6.0873817821        1.4585431223       -1.2110878187
 H         -5.6139053578        0.1379522600       -2.2932872979
 O         -4.1403571686        1.6459268821        0.1144594141
 C         -2.9394755978        1.9263783763        0.7467902727
 O         -2.9662915361        2.9391726045        1.4764432095
 O         -0.9640600192       -0.8004085114       -0.5905842643
 C         -0.5456958884        1.4238240401        1.2096893673
 C          0.5695204279        1.6836484827        0.2246101939
 C          0.2969674099        2.2280119519       -1.0262046602
 C          1.3104434728        2.4589821992       -1.9380562382
 C          2.6249935614        2.1682743013       -1.6182213889
 C          2.9122719984        1.6496147173       -0.3643185757
 C          1.8918169538        1.4102115616        0.5474421801
 H          2.1349870470        1.0004980777        1.5161075880
 N          4.2567384381        1.3481542705       -0.0434282580
 S          4.8702676960       -0.0344204273       -0.7700660531
 O          6.2303705933       -0.1605760845       -0.2980535636
 O          4.6900556805        0.0739414844       -2.1940965073
 C          3.8699771986       -1.3483351061       -0.0981448984
 C          2.5837596919       -1.5111543398       -0.5723422917
 C          1.7600806731       -2.4485013294        0.0310748975
 C          2.2387921636       -3.2075215974        1.0879085331
 C          3.5374824512       -3.0399155005        1.5462615328
 C          4.3596145316       -2.0934155909        0.9571536336
 H          5.3713698110       -1.9211441768        1.2877029142
 H          3.9057170662       -3.6357412336        2.3661237790
 H          1.5929094932       -3.9326314852        1.5582801837
 H          0.7433930532       -2.5464747885       -0.3149036382
 H          2.2327137707       -0.9094983191       -1.3949235601
 H          4.4228293805        1.2886095593        0.9524760793
 H          3.4255547383        2.3205012349       -2.3232720167
 H          1.0739900448        2.8696654236       -2.9082350330
 H         -0.7271725869        2.4602490521       -1.2847872488
 H         -0.7308336234        2.3564205711        1.7639792336
 C         -0.1977916126        0.3268246015        2.1991819988
 C          0.4398812987        0.6541904100        3.5152433352
 C         -0.9925442753        0.2171998833        3.4642595392
 H         -1.2490026636       -0.7651982960        3.8308602253
 H         -1.7600679587        0.9595390596        3.6312394581
 H          1.1679566030       -0.0325467160        3.9208267514
 H          0.6397395070        1.6927397757        3.7337849848
 H          0.0903701421       -0.5954882985        1.7077717201
