  62
        -98.94664551
 C          1.4895603755        1.6236838090       -0.1223559674
 C          1.5905256116        0.5343259528       -1.0235070689
 C          2.8866480877       -0.1597274862       -1.0440679589
 C          3.9030910915        0.2781574919       -0.2810712143
 C          5.2913660692       -0.2999296670       -0.2287084945
 C          5.4387326410       -1.4911454654        0.7271799582
 C          4.7842875902       -2.7886088470        0.2512374639
 H          5.1247417108       -3.0177535371       -0.7591094446
 H          5.1409136832       -3.5874798175        0.9045114646
 C          3.2493957550       -2.7713405551        0.2865435175
 H          2.8800122542       -3.6957000982        0.7368527011
 H          2.9052149453       -1.9532484526        0.9242053878
 C          2.5793370417       -2.6431684969       -1.0816495739
 H          2.7999552745       -3.5301444817       -1.6807419717
 H          1.4978356676       -2.6071233412       -0.9228306667
 C          2.9987992151       -1.3997784359       -1.8780475728
 H          2.3219443831       -1.2942223040       -2.7293788833
 H          4.0160591184       -1.5188508933       -2.2519222717
 H          6.5077256803       -1.6745102198        0.8583266094
 H          5.0266862947       -1.2123382191        1.6998434569
 H          5.6020833820       -0.5963167420       -1.2309567312
 H          5.9478058511        0.5016588127        0.1171147213
 O          3.7829536354        1.3557753284        0.5390677419
 C          2.5764474947        2.0224968160        0.6624440767
 O          2.5987487392        2.9621973418        1.4840103201
 O          0.6705838343        0.1448366945       -1.7895993150
 C          0.2217444464        2.4327554174        0.0930908357
 C         -0.6939245974        1.7896801511        1.1098552504
 C         -1.3085879109        2.5644948569        2.0875079249
 C         -2.1671287463        1.9890297407        3.0061565169
 C         -2.4386010122        0.6338545740        2.9600323483
 C         -1.8256953535       -0.1520583983        1.9901428414
 C         -0.9586033732        0.4286107913        1.0744654604
 H         -0.4775225796       -0.1982434699        0.3422105402
 N         -2.0680283516       -1.5303475250        1.9379771990
 S         -2.1180333230       -2.3429447434        0.4759543309
 O         -2.8668145607       -3.5461360210        0.7789898704
 O         -0.7866437096       -2.5477832497       -0.0300378896
 C         -3.0852007940       -1.3003772505       -0.5992786185
 C         -2.5021478366       -0.6371159271       -1.6582740264
 C         -3.2955376810        0.1868385860       -2.4433388739
 C         -4.6432697018        0.3331830781       -2.1579941813
 C         -5.2141479725       -0.3462898171       -1.0920264388
 C         -4.4292644712       -1.1708559247       -0.3043366764
 H         -4.8379122375       -1.7279729193        0.5231077474
 H         -6.2639985853       -0.2342473350       -0.8740628001
 H         -5.2522225286        0.9786720283       -2.7712658651
 H         -2.8492367348        0.7127367586       -3.2727586056
 H         -1.4467868238       -0.7556809712       -1.8496808639
 H         -2.7784000708       -1.8619785347        2.5732617760
 H         -3.1080585623        0.1811090073        3.6753323513
 H         -2.6321786635        2.6007472577        3.7639915451
 H         -1.0947092185        3.6217491595        2.1353745844
 H          0.5514783244        3.3951447776        0.5090247461
 C         -0.5550180988        2.7046560608       -1.1818552389
 C         -1.4542543193        3.9000394016       -1.2554766145
 C         -0.1786076906        3.8714009492       -2.0420641248
 H         -0.2289386308        3.7573016864       -3.1143527571
 H          0.6403196863        4.4931285587       -1.7094423603
 H         -2.3887943204        3.8060197771       -1.7863624789
 H         -1.5008107225        4.5500557638       -0.3952766444
 H         -0.8765138561        1.8016173139       -1.6814172221
