  62
        -98.93469870
 C         -2.6465724092       -0.9817619358        0.7444878057
 C         -2.9494503760        0.2755248778        1.3284220553
 C         -4.2826139005        0.8236259992        1.0525368558
 C         -5.1363407542        0.1144556540        0.2924018911
 C         -6.5071247821        0.5707231933       -0.1138503543
 C         -6.4681028905        1.3223777697       -1.4517532883
 C         -5.3954152850        2.4096066402       -1.5185879890
 H         -4.4089925043        1.9412651291       -1.4789748530
 H         -5.4817225558        2.8916976336       -2.4948660992
 C         -5.4969462765        3.4705685903       -0.4137101686
 H         -5.3683200673        4.4572586890       -0.8636318971
 H         -6.4913859129        3.4456318118        0.0334139111
 C         -4.4428574159        3.3429493714        0.6877410220
 H         -4.4656414553        4.2568361349        1.2874031254
 H         -3.4492735724        3.2716092931        0.2376148272
 C         -4.6221292460        2.1606592281        1.6483998996
 H         -3.9278869881        2.3015847408        2.4819483653
 H         -5.6396761521        2.1591264737        2.0445111969
 H         -7.4498413943        1.7660788607       -1.6272752878
 H         -6.2736941011        0.6009624274       -2.2487927542
 H         -6.9156261712        1.2127906084        0.6641234265
 H         -7.1449964995       -0.3084001434       -0.2197209961
 O         -4.8217894872       -1.0936467488       -0.2354945596
 C         -3.5688613969       -1.6687853597       -0.0463097234
 O         -3.4337294409       -2.7626145031       -0.6229078339
 O         -2.1367173541        0.9070079053        2.0567805710
 C         -1.2592632648       -1.5331599857        1.0195660684
 C         -0.2834032571       -1.0800378335       -0.0373194599
 C         -0.5624583121       -1.2353702116       -1.3914004527
 C          0.3468216016       -0.8165184296       -2.3458020997
 C          1.5445377384       -0.2315710928       -1.9738117028
 C          1.8327648719       -0.0697899734       -0.6253515605
 C          0.9208991954       -0.4995765823        0.3320202684
 H          1.1421100858       -0.3612056248        1.3817451118
 N          3.0351874786        0.5456816886       -0.2378040311
 S          4.4392763521        0.1191278759       -1.0761260814
 O          4.4861457834        0.8751518669       -2.3023482988
 O          4.5126799388       -1.3177608694       -1.2166156462
 C          5.6930641783        0.7048031511        0.0452939022
 C          5.9876026938        2.0551153545        0.0620326677
 C          6.9444534053        2.5197422601        0.9501055845
 C          7.5864631651        1.6321543416        1.8012280580
 C          7.2808391038        0.2798661769        1.7715340581
 C          6.3235631707       -0.1916958574        0.8869086124
 H          6.0595470994       -1.2352065927        0.8235345978
 H          7.7840246646       -0.4077288371        2.4320784361
 H          8.3319649949        1.9962626127        2.4904077610
 H          7.1866233683        3.5699258600        0.9753991249
 H          5.4697767607        2.7058301141       -0.6231310454
 H          3.1791429726        0.5124946551        0.7622082021
 H          2.2599754676        0.0966081164       -2.7105494209
 H          0.1205266881       -0.9458822985       -3.3939043934
 H         -1.4948405830       -1.6933630599       -1.6865071921
 H         -0.9569172372       -1.0594366584        1.9673176114
 C         -1.2352126268       -3.0384596308        1.2427565950
 C         -0.6445987776       -4.0145311730        0.2749869690
 C          0.0571842409       -3.7285279958        1.5665290675
 H          0.0623136189       -4.4863219110        2.3351205719
 H          0.9612486410       -3.1398418476        1.5177128046
 H         -1.1488986604       -4.9604521345        0.1505683846
 H         -0.2096201478       -3.6342089026       -0.6359008399
 H         -2.1136105916       -3.3772029293        1.7827065437
