  62
        -98.94472270
 C         -2.0130455047        1.0694245206        0.3425654235
 C         -3.1051135716        1.2055875622       -0.5556019700
 C         -4.3515696896        0.5283485706       -0.1796783288
 C         -4.3991073372       -0.1635515029        0.9729512905
 C         -5.5828329097       -0.9499453751        1.4546304602
 C         -5.5176001485       -2.4051822657        0.9701118915
 C         -5.2351110590       -2.5467282175       -0.5257197248
 H         -4.2268906255       -2.1811337523       -0.7348526244
 H         -5.2427690863       -3.6138966574       -0.7582053562
 C         -6.2365902352       -1.8184152999       -1.4330816731
 H         -7.1462204136       -1.5931677522       -0.8751442354
 H         -6.5154652886       -2.4849639824       -2.2519017564
 C         -5.6997293810       -0.5339536485       -2.0673358930
 H         -4.7394001436       -0.7368511543       -2.5481958687
 H         -6.3980431256       -0.2234570317       -2.8490730622
 C         -5.5205900452        0.6551873379       -1.1152498694
 H         -5.3218740021        1.5415431287       -1.7247399380
 H         -6.4440679581        0.8218979401       -0.5569899789
 H         -4.7232469506       -2.9177750032        1.5178258023
 H         -6.4644656916       -2.8919054820        1.2110375124
 H         -6.4956723026       -0.4777403147        1.0966484711
 H         -5.5825674665       -0.9393117352        2.5459122023
 O         -3.3420758914       -0.2604990562        1.8158108103
 C         -2.1243733021        0.3387411846        1.5254218583
 O         -1.2578792701        0.1424843885        2.4015844527
 O         -3.0390744919        1.8721451184       -1.6223878292
 C         -0.7167378420        1.7593123733       -0.0513391372
 C          0.2729565646        0.7603624014       -0.6015533072
 C          0.5590344649        0.7231040848       -1.9615938031
 C          1.4665626244       -0.1910186047       -2.4683018750
 C          2.1089305750       -1.0832655660       -1.6292459807
 C          1.8259734676       -1.0560193768       -0.2692677173
 C          0.9211741202       -0.1347925411        0.2379545688
 H          0.6915553251       -0.1335086335        1.2927607503
 N          2.4824372797       -1.9540778938        0.5914581401
 S          4.1485174668       -2.0437647916        0.4498216707
 O          4.4925720084       -2.9464138166       -0.6211245121
 O          4.6309454382       -2.4131690179        1.7621483632
 C          4.6640214528       -0.3876933274        0.0283347196
 C          4.3629648703        0.6320307027        0.9096028928
 C          4.7155762585        1.9295123759        0.5774219912
 C          5.3583460224        2.1849351003       -0.6242630342
 C          5.6584721636        1.1496831931       -1.4954473658
 C          5.3064470216       -0.1504065557       -1.1695110317
 H          5.5155589291       -0.9845476334       -1.8192213217
 H          6.1601277264        1.3507507468       -2.4282351498
 H          5.6261663483        3.1976054875       -0.8811432378
 H          4.4833888571        2.7362431661        1.2538590915
 H          3.8643318289        0.4018321185        1.8376457800
 H          2.1986110444       -1.8653641803        1.5563688321
 H          2.8158444698       -1.8059201304       -2.0039782872
 H          1.6763176713       -0.2091524325       -3.5267536123
 H          0.0519956060        1.4098521169       -2.6236706843
 H         -0.9949590120        2.4363730107       -0.8698225579
 C         -0.1126618863        2.5839047494        1.0687046463
 C          0.9188355270        3.6172341101        0.7321637377
 C         -0.4507652006        4.0397297059        1.1698985127
 H         -0.5707298262        4.4729603102        2.1516604805
 H         -1.1209208741        4.4501565855        0.4287214371
 H          1.7415639484        3.7624761516        1.4147716781
 H          1.1807778067        3.7406884901       -0.3074892910
 H          0.0027313385        2.0383617114        1.9959671047
