  62
        -98.94437546
 C          2.3633569392        1.1382853006        0.2403035400
 C          2.3718930694       -0.1448644194       -0.3587558299
 C          3.3700726696       -1.0863161392        0.1665131300
 C          4.1821448097       -0.7149918090        1.1724156299
 C          5.2335755299       -1.5693286788        1.8270715798
 C          6.5725281398       -1.5981949686        1.0771812296
 C          6.5734739598       -2.4027382487       -0.2232130903
 H          7.6158729798       -2.5222282285       -0.5249511505
 H          6.1733900800       -3.3992131887       -0.0331253002
 C          5.7993608695       -1.7461615389       -1.3746662803
 H          5.6407950494       -0.6887245389       -1.1510691503
 H          6.3955190394       -1.7945146489       -2.2886671703
 C          4.4488424896       -2.3937526792       -1.6808923800
 H          4.6030493897       -3.4161346092       -2.0333152800
 H          3.9718354694       -1.8290031193       -2.4859277300
 C          3.4816281697       -2.4292732592       -0.4903349399
 H          2.4893411097       -2.7017558194       -0.8594849197
 H          3.8015406200       -3.1802437791        0.2318927001
 H          7.3125117200       -2.0366797584        1.7505466995
 H          6.8791849196       -0.5704164186        0.8700464595
 H          4.8581945101       -2.5863881888        1.9442798499
 H          5.4037204700       -1.1451787287        2.8189458397
 O          4.1220333095        0.5182032310        1.7411844698
 C          3.2243020693        1.4699055808        1.2896452999
 O          3.2867318292        2.5589843709        1.8941933998
 O          1.5979742393       -0.4984259596       -1.2874524698
 C          1.3821281890        2.2131331704       -0.2024013599
 C         -0.0059225509        1.7752727002        0.1969632203
 C         -0.4257459707        1.9709613802        1.5100064803
 C         -1.6651196006        1.5249406100        1.9279502905
 C         -2.5078978306        0.8644555498        1.0500945007
 C         -2.0902345308        0.6478791098       -0.2553415494
 C         -0.8539772709        1.1185603000       -0.6799303696
 H         -0.5383943310        0.9325715500       -1.6940134396
 N         -2.9316033808       -0.0299370904       -1.1535208792
 S         -3.6924532104       -1.4332275605       -0.6366889790
 O         -2.9327827702       -2.1181701103        0.3835881010
 O         -3.9677073505       -2.1802356406       -1.8449877089
 C         -5.2344939805       -0.8479752907        0.0377392912
 C         -6.0069589607       -0.0040490509       -0.7362161788
 C         -7.2154770107        0.4482296289       -0.2313897186
 C         -7.6314641405        0.0485410089        1.0299295714
 C         -6.8466853402       -0.8021374909        1.7930537314
 C         -5.6357956102       -1.2570536607        1.2942690013
 H         -4.9897375400       -1.9143103406        1.8545398612
 H         -7.1714454700       -1.1124918809        2.7732009315
 H         -8.5724887605        0.4021296188        1.4206713015
 H         -7.8282525909        1.1101928988       -0.8218031486
 H         -5.6495141409        0.2810777291       -1.7114147788
 H         -2.5163879509       -0.1661182604       -2.0643189492
 H         -3.4701734905        0.5020284597        1.3729639008
 H         -1.9788734705        1.6884921400        2.9477980206
 H          0.2420927793        2.4663440004        2.2014233502
 H          1.6360458089        3.1085794105        0.3800735300
 C          1.5268237687        2.5349929603       -1.6750322100
 C          0.9167951984        3.7934854602       -2.2125853500
 C          2.4055327385        3.6750344005       -2.0896692202
 H          2.9920566884        3.5712270205       -2.9902966003
 H          2.9013949485        4.2329174706       -1.3087129603
 H          0.4796267683        3.7755541800       -3.1991432099
 H          0.4002907984        4.4327119801       -1.5127779700
 H          1.5273226388        1.6579925803       -2.3101577999
