  62
        -98.94331557
 C         -1.7537769006       -1.3532475501        0.0512598198
 C         -2.2671807803       -0.4739473706        1.0345733504
 C         -3.2779823201        0.4833484899        0.5723891811
 C         -3.6732638703        0.4672738808       -0.7136607889
 C         -4.7021640401        1.3746880714       -1.3320087582
 C         -4.1464661798        2.7358037216       -1.7740367474
 C         -3.8059230595        3.7019617808       -0.6382263468
 H         -3.6357738893        4.6807047710       -1.0913253162
 H         -4.6652734594        3.7963170305        0.0262675833
 C         -2.5635787295        3.3123916800        0.1756562728
 H         -1.9297871693        4.1911271797        0.3154227433
 H         -1.9766503397        2.5815235202       -0.3863388477
 C         -2.8675839195        2.7441177192        1.5620686425
 H         -1.9220938195        2.4639930786        2.0332868722
 H         -3.3372039493        3.5142323889        2.1775804230
 C         -3.7739080398        1.5060447994        1.5496220118
 H         -3.7507576898        1.0542484887        2.5441713015
 H         -4.7997079898        1.7910466098        1.3179703921
 H         -4.9023915198        3.2062646721       -2.4070229070
 H         -3.2586286899        2.5677878317       -2.3887037276
 H         -5.0844807603        0.8566868720       -2.2141845485
 H         -5.5257994200        1.5258662712       -0.6337975480
 O         -3.1747633006       -0.4123091088       -1.6234538995
 C         -2.1869033407       -1.3253415892       -1.2745352602
 O         -1.7895623510       -2.0353266387       -2.2172798107
 H          0.2502553797       -0.0050850702       -0.5226880796
 C          0.9430931694       -0.8172861703       -0.7072070002
 C          0.6142012392       -2.1001544905       -0.2895376509
 C          1.5295702489       -3.1198276605       -0.5252847717
 C          2.7279556889       -2.8608894304       -1.1680165316
 C          3.0399841192       -1.5844030002       -1.5994776008
 C          2.1326517794       -0.5593658801       -1.3711769001
 N          2.4460858397        0.7511452101       -1.8023914193
 S          3.6764422600        1.5029892892       -0.9464783190
 O          3.6336959802        2.8940754695       -1.3345701881
 O          4.9099866198        0.8038053791       -1.1962967095
 C          3.1937259001        1.3168341283        0.7591497210
 C          3.5612945499        0.1741931578        1.4407691502
 C          3.0954344200       -0.0110354130        2.7325635901
 C          2.2727033702        0.9408524369        3.3147737808
 C          1.9144117004        2.0839082774        2.6167903516
 C          2.3723535204        2.2725893481        1.3230709517
 H          2.1172942405        3.1471138985        0.7454856622
 H          1.2733184907        2.8213790073        3.0729851121
 H          1.9036772703        0.7902332863        4.3169938408
 H          3.3694189798       -0.8998625334        3.2776224696
 H          4.2027015397       -0.5416590621        0.9532521097
 H          1.6408418298        1.3613792203       -1.8155596289
 H          3.9698907792       -1.3617673101       -2.0968459308
 H          3.4260243787       -3.6655989805       -1.3411232222
 H          1.3019093487       -4.1228291407       -0.2031326523
 C         -0.6781450308       -2.3410908106        0.4536140190
 H         -0.4915723606       -2.1445719414        1.5209722491
 C         -1.1825952911       -3.7635861904        0.3054749982
 C         -0.7854915313       -4.8232219911        1.2883996175
 C         -2.1815057912       -4.2798578108        1.2963941780
 H         -2.9859214313       -4.9057699404        0.9403343476
 H         -2.4680733609       -3.6169289213        2.0998620984
 H         -0.1311960111       -4.5377754618        2.0982352976
 H         -0.6316426615       -5.8289640610        0.9270272468
 H         -1.3151614513       -4.0495095798       -0.7319126720
 O         -1.8926448002       -0.4847856415        2.2373867103
