  62
        -98.93949070
 C         -1.4892632104       -1.7060040545       -0.2736339534
 C         -1.3675926461       -0.3542633573       -0.6705042468
 C         -2.6143687816        0.4375669675       -0.6962274231
 C         -3.7669502581       -0.1520277757       -0.3293735084
 C         -5.1175751748        0.4976407461       -0.2088545048
 C         -5.2498992111        1.3391096245        1.0770567262
 C         -3.9878559340        2.0894905912        1.5025351421
 H         -4.1547110278        2.4729066018        2.5127255795
 H         -3.1544404155        1.3863784265        1.5595620503
 C         -3.5975999384        3.2703154527        0.6158692395
 H         -4.3589049587        4.0488490234        0.7083352429
 H         -2.6577975903        3.6738368697        1.0001222670
 C         -3.4221428342        2.9561187850       -0.8683001790
 H         -3.0444878003        3.8613315222       -1.3529199350
 H         -4.3859005006        2.7422136615       -1.3226894020
 C         -2.4172577660        1.8507787472       -1.1852766867
 H         -2.3118694379        1.7857458236       -2.2755212596
 H         -1.4315122218        2.1452517304       -0.8104940993
 H         -6.0704220620        2.0464182944        0.9479697106
 H         -5.5153232212        0.6610000375        1.8914119285
 H         -5.3139922942        1.0951447491       -1.0946651012
 H         -5.8576770441       -0.3045555027       -0.1777635487
 O         -3.8339902026       -1.4564534199        0.0599608515
 C         -2.7137391182       -2.2625878055        0.0955491694
 O         -2.9293703826       -3.4336702246        0.4696795481
 H          2.1901173928       -1.3329135269       -0.5035836015
 C          1.8669931631       -1.4141485735        0.5196852354
 C          0.6725360191       -2.0378208180        0.8403016427
 C          0.2946426535       -2.1158501503        2.1792286131
 C          1.0964549400       -1.5872745888        3.1716497513
 C          2.2849329944       -0.9551861160        2.8478247063
 C          2.6667160804       -0.8672305894        1.5146725926
 N          3.8709961445       -0.2421254463        1.1604200273
 S          4.0130333927        0.6578960850       -0.2355360464
 O          4.0391005784       -0.2031778892       -1.3911145142
 O          5.2155139303        1.4390121178       -0.0197798079
 C          2.6271945328        1.7793714660       -0.3125613298
 C          2.1232779359        2.3280153304        0.8487064456
 C          1.1148468183        3.2735238721        0.7603254672
 C          0.6391483116        3.6636593444       -0.4812060215
 C          1.1553927652        3.1025389089       -1.6381933312
 C          2.1562778950        2.1497332902       -1.5544425998
 H          2.5747099455        1.6791325578       -2.4296180862
 H          0.7748349292        3.3964477791       -2.6034328200
 H         -0.1406417722        4.4069530278       -0.5477372852
 H          0.7030005334        3.7016040084        1.6607079514
 H          2.5077000887        2.0159931144        1.8062149058
 H          4.3814613643        0.1765718676        1.9238729734
 H          2.9133386848       -0.5380681519        3.6202160809
 H          0.7933705141       -1.6609511761        4.2051286352
 H         -0.6418291886       -2.5975668639        2.4267516674
 C         -0.2616176863       -2.5986036637       -0.2031226745
 H         -0.6185367339       -3.5773472045        0.1468796025
 C          0.3722146555       -2.7713703973       -1.5663424554
 C          1.2971465977       -3.9244652234       -1.8095021474
 C         -0.0635835267       -3.9089487500       -2.4376076672
 H         -0.1395089110       -3.7434755102       -3.5018863523
 H         -0.8160986675       -4.5776868292       -2.0451433780
 H          2.1601476684       -3.7677160585       -2.4388946055
 H          1.4692808472       -4.6064358139       -0.9903415560
 H          0.5966945506       -1.8309153636       -2.0554298276
 O         -0.2725788981        0.1811851433       -0.9839655465
