  62
        -98.93754541
 C         -1.8582302505       -0.5313453202       -0.8663934300
 C         -2.2422716007       -0.0407513397        0.4027311198
 C         -3.6873077908       -0.0493186497        0.6992723296
 C         -4.5508616206       -0.5068728302       -0.2266439703
 C         -6.0557580406       -0.6769225104       -0.1911545704
 C         -6.8913213208       -0.0232102600        0.9061866792
 C         -6.9430228610        1.5030427500        0.8451861685
 H         -7.5236008309        1.7954153395       -0.0334605417
 H         -7.4742932711        1.8627763603        1.7290458182
 C         -5.5902889410        2.2050171001        0.7574135383
 H         -5.0899930509        1.9224163797       -0.1710229915
 H         -5.7752956912        3.2815439801        0.7083398178
 C         -4.6440942011        1.9491968808        1.9287124985
 H         -3.7927999112        2.6258990708        1.8174793683
 H         -5.1459163013        2.1946172912        2.8667222384
 C         -4.0866805610        0.5188926309        2.0307022093
 H         -3.1734793411        0.5538968913        2.6320829094
 H         -4.7852605010       -0.1426189990        2.5374887195
 H         -6.5548917809       -0.3553794795        1.8838285694
 H         -7.9126899407       -0.3930618302        0.7809899493
 H         -6.4167900805       -0.3360089909       -1.1667742206
 H         -6.2301193405       -1.7582822104       -0.1607789399
 O         -4.1276837304       -0.9750005808       -1.4388694300
 C         -2.7900965904       -0.9978504508       -1.7900331799
 O         -2.5634150802       -1.4529006813       -2.9300959596
 H          2.1294233494       -0.0946131495       -0.2569551897
 C          1.6858830394       -1.0001476893        0.1223008507
 C          0.4124191795       -1.3757348697       -0.2775299493
 C         -0.1174693304       -2.5633352995        0.2201579412
 C          0.5969866796       -3.3375622990        1.1129668017
 C          1.8664070795       -2.9574587587        1.5114272416
 C          2.4137548194       -1.7852841688        1.0065985711
 N          3.6956826893       -1.3682737485        1.3943261511
 S          4.7417074694       -0.7254190289        0.2579990609
 O          4.5357010096       -1.3081060196       -1.0473265388
 O          6.0588183793       -0.9067054585        0.8316079911
 C          4.3735882992        1.0158318510        0.2213989700
 C          4.0536314789        1.6624452315        1.3987506697
 C          3.8152322388        3.0271501615        1.3682099690
 C          3.9095545089        3.7206765509        0.1710508687
 C          4.2387435691        3.0579911404       -1.0011227909
 C          4.4732455792        1.6917615605       -0.9784194203
 H          4.7185354894        1.1350023101       -1.8688261200
 H          4.3116948691        3.5982189200       -1.9318776612
 H          3.7239138587        4.7830338309        0.1508339482
 H          3.5555863386        3.5453541119        2.2773253687
 H          3.9857339789        1.0937646020        2.3109573900
 H          4.1726669293       -1.9939502182        2.0271004414
 H          2.4278808395       -3.5628532983        2.2068905420
 H          0.1658814096       -4.2499949889        1.4970833420
 H         -1.1053233603       -2.8689098098       -0.0976297588
 C         -0.3929734905       -0.5558683702       -1.2568431198
 H         -0.3458669703       -1.0590793507       -2.2346379295
 C          0.1186270294        0.8620475997       -1.4139217904
 C          1.1848235795        1.1824601194       -2.4163194304
 C         -0.2278817406        1.6186459891       -2.6597872708
 H         -0.4655813107        2.6683966091       -2.5771847713
 H         -0.8052118704        1.0972528687       -3.4098521906
 H          1.9155604093        1.9359083696       -2.1637040507
 H          1.5774652796        0.3688818392       -3.0081323800
 H          0.1151652992        1.4084704002       -0.4776644807
 O         -1.4196292809        0.3781518508        1.2575576897
