  62
        -98.93162419
 C         -2.3879241971       -0.5164741360        0.2272412921
 C         -1.6787115291        0.1066903436       -0.8278508038
 C         -1.7097542166        1.5758109867       -0.8447982447
 C         -2.3255956552        2.2397032887        0.1484494426
 C         -2.4549386263        3.7330915263        0.2849868799
 C         -1.1302777873        4.4920071912        0.4961976776
 C         -0.5261601820        5.0670208527       -0.7910866052
 H         -1.3213596150        5.1901522409       -1.5275850144
 H         -0.1354669873        6.0646937307       -0.5806712227
 C          0.6188183803        4.2572658886       -1.4067702084
 H          0.7733974663        4.6201432763       -2.4255345987
 H          1.5351252202        4.4511075115       -0.8439819171
 C          0.4256284185        2.7404490663       -1.4437365230
 H          1.2042434008        2.3183526176       -2.0832779953
 H          0.5886744495        2.3234559207       -0.4470167883
 C         -0.9568649004        2.2737268881       -1.9411721624
 H         -0.8323872565        1.5455270902       -2.7452474949
 H         -1.5331268384        3.1156289884       -2.3229113780
 H         -1.3386985475        5.3184505274        1.1778778486
 H         -0.4160411502        3.8343933941        0.9937548875
 H         -2.9665626467        4.1265900924       -0.5964027211
 H         -3.1037187629        3.8943744232        1.1484173230
 O         -2.9517989531        1.6024765680        1.1762289752
 C         -2.9811861331        0.2219546634        1.2488551420
 O         -3.5615683542       -0.2287503529        2.2615128513
 O         -1.0512651022       -0.5238473525       -1.7159791448
 C         -2.4155450194       -2.0386133824        0.3553359955
 C         -0.9786436667       -2.5008157795        0.3085199122
 C         -0.3624159925       -3.3394957894       -0.6104228139
 C          1.0058155734       -3.5605116458       -0.5649362619
 C          1.8023332372       -2.9280243742        0.3701781164
 C          1.1966497985       -2.0990068060        1.3044225907
 C         -0.1731487631       -1.9245955448        1.2907171097
 H         -0.6268620580       -1.2648861455        2.0217118601
 N          2.0198640090       -1.3484931608        2.1980073590
 S          2.2001466273        0.2270400445        1.6043528992
 O          3.0724022236        0.9022383749        2.5430001898
 O          0.9165831033        0.8651277683        1.3958410549
 C          3.0438856120       -0.0459326587        0.0652905244
 C          4.4249780214       -0.0830163209        0.0802205466
 C          5.1017428692       -0.3485293189       -1.0988939127
 C          4.3877888334       -0.5784378195       -2.2656882482
 C          3.0021746283       -0.5401383211       -2.2618172102
 C          2.3165104664       -0.2729794680       -1.0864760475
 H          1.2380494894       -0.2438499971       -1.0608396022
 H          2.4407339584       -0.7222507709       -3.1641003270
 H          4.9133038624       -0.7896445204       -3.1836950047
 H          6.1793807046       -0.3789418795       -1.1039207116
 H          4.9329817050        0.1030911955        1.0122022385
 H          1.6200796948       -1.2778424408        3.1253139839
 H          2.8724527529       -3.0546510529        0.3832771044
 H          1.4585843600       -4.2126724199       -1.2956159582
 H         -0.9256178490       -3.8089441246       -1.3959838238
 H         -2.7752835813       -2.2313007921        1.3802528241
 C         -3.4853688569       -2.5977318259       -0.5683603882
 C         -3.3128051866       -2.8754520220       -2.0287315210
 C         -3.5456475023       -4.0084489682       -1.0724089074
 H         -4.5125986465       -4.4895169796       -1.0894964721
 H         -2.7361488293       -4.6779663530       -0.8330837435
 H         -4.1208595030       -2.5924563754       -2.6880918114
 H         -2.3380273764       -2.7182327308       -2.4596215767
 H         -4.4418318592       -2.1602935347       -0.2875589184
