  62
        -98.93884951
 C         -1.8040569505       -1.1165264555        0.5012140858
 C         -2.0544542554        0.1271115900        1.1378804505
 C         -3.4502398785        0.5760762790        1.1660731177
 C         -4.4104353011       -0.2056521600        0.6405350072
 C         -5.8847711271        0.0941467706        0.6163967054
 C         -6.3205816910        0.9902134646       -0.5508425771
 C         -5.9072471376        2.4578090920       -0.4334898404
 H         -6.4586424971        3.0084234523       -1.1982144745
 H         -6.2198655083        2.8462757197        0.5362463465
 C         -4.4058756236        2.7107082092       -0.6312602318
 H         -3.9487908771        1.8432144215       -1.1134128260
 H         -4.2639754863        3.5597200104       -1.3039358291
 C         -3.6391311102        3.0205396059        0.6547407311
 H         -3.9958550026        3.9632385527        1.0760889746
 H         -2.5822416899        3.1438331184        0.4020191145
 C         -3.7456787224        1.9323365905        1.7311816013
 H         -3.0011086745        2.1405303750        2.5034910189
 H         -4.7362461034        1.9486673078        2.1856053908
 H         -5.9228889024        0.5734170148       -1.4789928764
 H         -7.4106572702        0.9456960427       -0.6065007338
 H         -6.3953961627       -0.8666092395        0.5219528319
 H         -6.1803800972        0.5541395056        1.5597431230
 O         -4.1382688001       -1.4084839762        0.0736897987
 C         -2.8356480699       -1.8857229500       -0.0395004273
 O         -2.7601702761       -2.9828833296       -0.6206851521
 O         -1.1498129876        0.8232579736        1.6733824810
 C         -0.3562329263       -1.5694180163        0.4468448475
 C          0.2977375509       -1.1543616513       -0.8468393625
 C         -0.2698262415       -1.4582941356       -2.0807110761
 C          0.3557805024       -1.0702165442       -3.2513186669
 C          1.5471131350       -0.3666349261       -3.2163249495
 C          2.1206430883       -0.0528631357       -1.9898779422
 C          1.4960672415       -0.4559105623       -0.8171202048
 H          1.9376438987       -0.1993738892        0.1327374550
 N          3.3411623109        0.6322101376       -1.9228166218
 S          3.6095607488        1.7858804052       -0.7363616989
 O          2.4003084771        2.5005199158       -0.4047469654
 O          4.6999293474        2.5817145695       -1.2591556665
 C          4.1989032781        0.8438796332        0.6538905209
 C          3.5359620313        0.9085719404        1.8634463644
 C          4.0139583546        0.1609592670        2.9287100849
 C          5.1400941341       -0.6313940032        2.7665101314
 C          5.7969378986       -0.6812606624        1.5459437776
 C          5.3246898642        0.0634080691        0.4773612781
 H          5.8079876337        0.0563009031       -0.4852608559
 H          6.6719059166       -1.2991837013        1.4245702003
 H          5.5059280286       -1.2137294773        3.5974079616
 H          3.5007280362        0.1979974600        3.8764280464
 H          2.6548357115        1.5271214290        1.9454239374
 H          3.7162022565        0.9192432823       -2.8151452331
 H          2.0292848038       -0.0596876532       -4.1321125700
 H         -0.0925827525       -1.3133722654       -4.2030474520
 H         -1.2006527700       -2.0040270711       -2.1109149240
 H          0.1365199846       -1.0045622558        1.2545675182
 C         -0.1722043153       -3.0487808798        0.7578348884
 C          0.2644592344       -4.0643177793       -0.2503970999
 C          1.2103356824       -3.6280455937        0.8254265296
 H          1.4454283219       -4.3162764094        1.6227842712
 H          2.0288219998       -2.9847791359        0.5379577921
 H         -0.1787501657       -5.0465245477       -0.1904269435
 H          0.4522820782       -3.7355157669       -1.2599067502
 H         -0.8812489279       -3.3919261139        1.5045908096
