  62
        -98.94037425
 C         -1.1573141698       -1.1511650191        0.5243783010
 C         -1.6952813899       -0.7637323996       -0.7251553591
 C         -2.5397639600        0.4459977703       -0.7196582595
 C         -2.6717551000        1.1497787408        0.4172830802
 C         -3.5430693800        2.3532369508        0.6479672398
 C         -4.9057072600        1.9254020809        1.2198899601
 C         -5.9575092600        1.5596522205        0.1730588403
 H         -6.8186009599        1.1515131906        0.7073694705
 H         -6.2893719601        2.4680049503       -0.3343784100
 C         -5.5105012700        0.5457682201       -0.8838812094
 H         -4.9450009599       -0.2580118697       -0.4089998491
 H         -6.4077467100        0.0971439999       -1.3149570692
 C         -4.6814875201        1.1754742497       -2.0132146097
 H         -5.0943976902        0.8681759893       -2.9761721495
 H         -4.7858187202        2.2594698897       -1.9654691401
 C         -3.1899873001        0.8009718298       -2.0289074296
 H         -2.6270489502        1.6162246497       -2.4948881200
 H         -3.0427045901       -0.0812850104       -2.6594685493
 H         -4.7380471099        1.0752256612        1.8861262104
 H         -5.3039295700        2.7411567311        1.8266801798
 H         -3.6687067801        2.9241582404       -0.2675104704
 H         -3.0355359700        2.9729817911        1.3898338796
 O         -2.0372600299        0.8045635312        1.5706823803
 C         -1.2831587698       -0.3472685987        1.6584416307
 O         -0.7739235497       -0.5462771782        2.7812341407
 O         -1.5065768099       -1.3968249700       -1.7955000889
 C         -0.3509111997       -2.4322814590        0.6774144014
 C          1.0008052602       -2.2267026091        0.0401536713
 C          1.3782279002       -2.7845022096       -1.1733920486
 C          2.6213168101       -2.5028922697       -1.7163278587
 C          3.5111932701       -1.6699848394       -1.0622743191
 C          3.1398150002       -1.1071181990        0.1523747207
 C          1.8950564702       -1.3853332988        0.6926693809
 H          1.5999748002       -0.9375479285        1.6335847207
 N          4.0354949902       -0.2360463787        0.8176622703
 S          4.2586469600        1.2475251411        0.0734362098
 O          4.8703468799        1.0311724506       -1.2119554402
 O          5.0041329700        2.0529812515        1.0127815794
 C          2.6151685600        1.9091223009       -0.1330640104
 C          1.8446982799        1.4660146205       -1.1897144902
 C          0.5479761099        1.9362669703       -1.3146748403
 C          0.0483051999        2.8399637806       -0.3899479106
 C          0.8320977499        3.2697985311        0.6693685292
 C          2.1262280200        2.7946319512        0.8060633393
 H          2.7700366600        3.1041856616        1.6139658992
 H          0.4369486499        3.9678847513        1.3899068890
 H         -0.9596091602        3.2084210105       -0.4955587907
 H         -0.0687601901        1.5851084900       -2.1266340701
 H          2.2652975899        0.7708641002       -1.8978959499
 H          3.7763432402       -0.0757959883        1.7818607603
 H          4.4749752201       -1.4285899295       -1.4800644293
 H          2.9008277801       -2.9394590300       -2.6631577086
 H          0.6931738302       -3.4258960798       -1.7022293583
 H         -0.1909016096       -2.5540244786        1.7578497615
 C         -1.1009263197       -3.6407691692        0.1611107019
 C         -0.6584727196       -5.0094103190        0.5802332524
 C         -1.9380508196       -4.4394770889        1.1125502623
 H         -2.8725198296       -4.8484453291        0.7586122225
 H         -1.9655660695       -4.1210876385        2.1448180421
 H         -0.7135977095       -5.8130465493       -0.1379337173
 H          0.1845358505       -5.0768805987        1.2514163524
 H         -1.4800133197       -3.5140045196       -0.8447764481
