  62
        -98.93990785
 C         -1.8651756459       -0.5808418073        0.0056728963
 C         -2.4078698647        0.7114969618        0.2264526857
 C         -3.8141962306        0.9061353341       -0.1481913504
 C         -4.4967126003       -0.1216192199       -0.6843999415
 C         -5.9482622738       -0.0848420901       -1.0638069409
 C         -6.8395853448       -0.5355335357        0.1018954038
 C         -6.5189275599        0.1549169581        1.4275079748
 H         -7.2289731737       -0.2178962177        2.1688906535
 H         -5.5221812610       -0.1484720071        1.7558521664
 C         -6.5891362862        1.6875982784        1.3782270149
 H         -7.1562627762        2.0050345431        0.5024522243
 H         -7.1279936749        2.0423772930        2.2593178738
 C         -5.2273905520        2.3849807655        1.3789040055
 H         -4.6188331019        2.0017298600        2.2019944220
 H         -5.3905267581        3.4504151049        1.5625268870
 C         -4.4147277306        2.2641008585        0.0834581554
 H         -5.0316973642        2.5623941139       -0.7668667356
 H         -3.5705019909        2.9564446059        0.1547035620
 H         -6.7138274663       -1.6121338789        0.2376180329
 H         -7.8804724471       -0.3460664592       -0.1663867088
 H         -6.1002663725       -0.7598152642       -1.9076970204
 H         -6.2125998713        0.9262444984       -1.3675448256
 O         -3.9422504098       -1.3389984287       -0.8998787491
 C         -2.6187667167       -1.6077367225       -0.5656644067
 O         -2.2680313847       -2.7713462298       -0.8292900190
 O         -1.7429893807        1.6601324787        0.7251662626
 C         -0.4155529706       -0.7865252031        0.4111780045
 C          0.5054604191       -0.4930361089       -0.7454402133
 C          0.3400138587       -1.1293445399       -1.9728697674
 C          1.1819658973       -0.8400883471       -3.0301903329
 C          2.2046813413        0.0810981027       -2.8851198882
 C          2.3734510408        0.7281411790       -1.6665576851
 C          1.5282259190        0.4336832358       -0.6037081724
 H          1.6524844971        0.9649652241        0.3279694085
 N          3.3878777989        1.6787357625       -1.5059823005
 S          4.1335188915        1.9291838393       -0.0388142168
 O          3.2790620261        2.6781797240        0.8475014637
 O          5.3899214769        2.5595827180       -0.3842422587
 C          4.4478821533        0.3102637915        0.6441558969
 C          4.1850985381        0.0851997867        1.9801221299
 C          4.4684026056       -1.1592835799        2.5214446758
 C          5.0014055956       -2.1555461644        1.7185731784
 C          5.2582594413       -1.9149344757        0.3776285493
 C          4.9851641697       -0.6703732731       -0.1665352121
 H          5.1843957330       -0.4559474957       -1.2036129798
 H          5.6693828433       -2.6927948543       -0.2451578516
 H          5.2140557537       -3.1250687951        2.1397847653
 H          4.2656671887       -1.3470172955        3.5636285062
 H          3.7570741731        0.8835792714        2.5654556078
 H          4.0172827981        1.7844515080       -2.2869346506
 H          2.8587064622        0.3101082868       -3.7125561862
 H          1.0430698004       -1.3394221766       -3.9771533248
 H         -0.4563128935       -1.8492235173       -2.0854356077
 H         -0.2288730080       -0.0170211621        1.1776124432
 C         -0.1561273795       -2.1419848797        1.0546150229
 C          0.7054620587       -3.2022605002        0.4432099430
 C          1.1947555360       -2.4395998486        1.6347788993
 H          1.2502520301       -2.9415982132        2.5884596028
 H          1.9712682995       -1.7066696985        1.4735509087
 H          0.3946238676       -4.2276614347        0.5709118333
 H          1.1633260623       -3.0026913001       -0.5121120578
 H         -1.0152311778       -2.4917537630        1.6177956137
