  62
        -98.94134216
 C          2.2428570104        0.6843008106       -0.3211214888
 C          3.4771831104        0.9439858698        0.3255033416
 C          4.2460574703       -0.2330962306        0.7483894404
 C          3.7311206704       -1.4599551004        0.5478549989
 C          4.4238995303       -2.7465295108        0.8898963176
 C          5.2504546605       -3.2649832194       -0.2954144829
 C          6.1607842105       -2.2090021987       -0.9224000117
 H          6.7162807306       -2.6952807478       -1.7271570322
 H          5.5432000706       -1.4333159482       -1.3808411208
 C          7.1461209304       -1.5576295198        0.0579700792
 H          8.1298322905       -1.5104614393       -0.4138237807
 H          7.2444280203       -2.1765312208        0.9505162685
 C          6.7809517404       -0.1301673303        0.4693529307
 H          6.5909311304        0.4709501207       -0.4233163986
 H          7.6423885303        0.3070111391        0.9811168313
 C          5.5752582403        0.0065587086        1.4077819008
 H          5.7022242902       -0.6523940523        2.2691763500
 H          5.5487947902        1.0395240382        1.7669350719
 H          5.8511418204       -4.1096535598        0.0466990762
 H          4.5634578005       -3.6254956886       -1.0644658134
 H          5.0669731103       -2.5879166818        1.7534345178
 H          3.6646365703       -3.4877333111        1.1453371766
 O          2.5264294604       -1.6696356298       -0.0402754414
 C          1.7549616705       -0.6106281993       -0.4977676103
 O          0.6863530505       -0.9590763987       -1.0358305008
 O          3.9151407903        2.1064920396        0.5360720230
 C          1.4099018205        1.8714938511       -0.7774458275
 C          0.1710976204        1.9263863901        0.0813908324
 C          0.2670787302        2.4409441186        1.3717225930
 C         -0.8264842398        2.4357575877        2.2164524929
 C         -2.0375225298        1.9126819981        1.7964105022
 C         -2.1402533797        1.3896780196        0.5150871516
 C         -1.0439452596        1.4097444605       -0.3382250583
 H         -1.1333639095        0.9852865617       -1.3255480988
 N         -3.3671650096        0.8549672500        0.0704342509
 S         -4.1566490897       -0.2094476611        1.1198551396
 O         -4.8337575598        0.5675158477        2.1288313204
 O         -3.2389235897       -1.2136437417        1.6113580486
 C         -5.3530438896       -0.9356603599        0.0172549087
 C         -6.5741231496       -0.3112384597       -0.1515130207
 C         -7.4900334495       -0.8602325187       -1.0347676715
 C         -7.1708933194       -2.0165078680       -1.7309808027
 C         -5.9411624794       -2.6320990881       -1.5505785133
 C         -5.0198021895       -2.0875822591       -0.6697854726
 H         -4.0546069095       -2.5364556893       -0.4936477330
 H         -5.6957983794       -3.5320672475       -2.0913839543
 H         -7.8851616393       -2.4430789172       -2.4173908733
 H         -8.4477110995       -0.3861167586       -1.1768122210
 H         -6.7793522496        0.5803802696        0.4173203702
 H         -3.2632826395        0.4197126311       -0.8372821196
 H         -2.8937100299        1.8847704674        2.4507246421
 H         -0.7373207099        2.8373413865        3.2149135934
 H          1.2180764002        2.8299734882        1.7088350836
 H          2.0198084504        2.7570459808       -0.5534860065
 C          1.1321825906        1.8332979827       -2.2650710776
 C          0.6395236307        3.0708277135       -2.9520367862
 C          2.0348199007        2.5827099638       -3.1968700366
 H          2.2672706508        2.1405101949       -4.1540703971
 H          2.8544196706        3.1351144233       -2.7612521159
 H         -0.0874436993        2.9678935944       -3.7429850164
 H          0.5102648906        3.9555996528       -2.3473874252
 H          0.7558216406        0.8767340731       -2.6068405287
