  62
        -98.93939889
 C         -1.9766550207       -1.3822197500        0.6806566998
 C         -1.8428945703       -0.0487612099        1.1510692194
 C         -2.9680560498        0.8558325405        0.8875583488
 C         -4.0521774698        0.3796360908        0.2492040786
 C         -5.2566745893        1.1939312612       -0.1235989620
 C         -5.1159655286        1.7775536207       -1.5362657121
 C         -3.7789701783        2.4764626400       -1.7829563019
 H         -2.9775964286        1.7345196297       -1.7506629215
 H         -3.8046353478        2.8774899997       -2.7986080021
 C         -3.4633402581        3.6068348902       -0.7936083222
 H         -3.0861327775        4.4652229999       -1.3535630123
 H         -4.3778683281        3.9255418408       -0.2920982326
 C         -2.4037455685        3.2574140401        0.2533580583
 H         -1.5244053486        2.8389378095       -0.2417359613
 H         -2.1002137583        4.1853272401        0.7452028581
 C         -2.8402588193        2.2792937906        1.3512156884
 H         -3.7719509293        2.6233236811        1.8050258380
 H         -2.0626228396        2.2728637305        2.1204316587
 H         -5.2162184188        0.9640169005       -2.2585959919
 H         -5.9336677883        2.4813588410       -1.7026981626
 H         -6.1335882496        0.5448615916       -0.0939868621
 H         -5.3857963192        1.9950387815        0.6015674877
 O         -4.1511986502       -0.9030033193       -0.1771357510
 C         -3.1081325907       -1.8119285197       -0.0125593804
 O         -3.3404727010       -2.9253095198       -0.5159977301
 O         -0.8232030903        0.3572029398        1.7692550196
 C         -0.7766213112       -2.2791249505        0.9305480605
 C          0.3209206793       -1.9139518412       -0.0370403293
 C          0.0549053998       -1.7519953015       -1.3925666494
 C          1.0604590802       -1.3786486522       -2.2656954992
 C          2.3473378301       -1.1573392227       -1.8062341889
 C          2.6224615297       -1.3147524924       -0.4546330588
 C          1.6110616092       -1.6928829417        0.4191829510
 H          1.8268345488       -1.7952620514        1.4738469011
 N          3.9284319696       -1.0869871028        0.0212459816
 S          4.6042347604        0.4173237268       -0.2822881187
 O          4.9062134309        0.5266574362       -1.6865687186
 O          5.7265586301        0.5146480366        0.6226289216
 C          3.3351639107        1.5827137875        0.1719696006
 C          3.1512160004        1.8570523980        1.5125439004
 C          2.1295204307        2.7127100086        1.8878286398
 C          1.3097347113        3.2718917886        0.9206315994
 C          1.5065523015        2.9854229281       -0.4208152204
 C          2.5262534913        2.1288528676       -0.8030094699
 H          2.7118184415        1.8817493072       -1.8355780297
 H          0.8668792520        3.4238783882       -1.1705467008
 H          0.5105366715        3.9328822391        1.2156901690
 H          1.9689264005        2.9347640589        2.9304245597
 H          3.8159199200        1.4103071979        2.2348134208
 H          4.0401966392       -1.3133518226        0.9996226917
 H          3.1390825705       -0.8541779732       -2.4719155388
 H          0.8405462006       -1.2561525925       -3.3156317193
 H         -0.9517705302       -1.9166709212       -1.7508782197
 H         -0.4202005814       -2.0086810103        1.9382540705
 C         -1.0810793719       -3.7675444303        0.9476121908
 C         -0.7215013219       -4.6934057908       -0.1710671088
 C          0.0327240876       -4.7576334808        1.1212681215
 H         -0.1248246029       -5.6036431005        1.7728183417
 H          1.0435906778       -4.3779299212        1.1250699817
 H         -1.4194590022       -5.4806547206       -0.4107059987
 H         -0.2190234415       -4.2829669913       -1.0330125687
 H         -2.0082124121       -3.9847955997        1.4664294306
