  62
        -98.93787164
 C         -1.7448242741        0.5663061041       -0.5261725908
 C         -3.0187489375        0.5788528580       -1.1361642485
 C         -4.1871248087        0.3994204856       -0.2520772906
 C         -3.9793209505        0.2427454266        1.0688298518
 C         -4.9988470696       -0.0001430670        2.1497853528
 C         -5.5244788531       -1.4446350720        2.1533279151
 C         -5.8662747494       -2.0079509335        0.7764042751
 H         -4.9794747070       -1.9664701556        0.1412142229
 H         -6.1232773363       -3.0629552213        0.9038580581
 C         -7.0324188487       -1.3259297807        0.0648852530
 H         -7.9258102452       -1.4006859505        0.6889445995
 H         -7.2228355834       -1.8855640382       -0.8546046534
 C         -6.8217539139        0.1429068755       -0.3091511812
 H         -6.9463258822        0.7898348416        0.5551036941
 H         -7.6115374416        0.4146556608       -1.0157582906
 C         -5.4961987656        0.4402665026       -1.0031164617
 H         -5.3773206185       -0.2390387109       -1.8551646338
 H         -5.5513484736        1.4437918508       -1.4425538294
 H         -4.7537191093       -2.0835059061        2.5917404992
 H         -6.4051025281       -1.4899600825        2.7963164136
 H         -4.4974624008        0.1883748212        3.1016747302
 H         -5.8162259412        0.7091058488        2.0601898968
 O         -2.7297697845        0.2452915860        1.6148625730
 C         -1.5884679310        0.4050717942        0.8502026686
 O         -0.5263619439        0.3861173851        1.4979667223
 O         -3.1818079931        0.7254445474       -2.3788633789
 C         -0.5155765607        0.7488447792       -1.3937201690
 C          0.4348847826       -0.4174406556       -1.2723707412
 C         -0.0504396458       -1.7020876275       -1.0479778115
 C          0.8101659536       -2.7753465460       -0.9123509644
 C          2.1787008854       -2.5969571607       -1.0146546581
 C          2.6730934101       -1.3266443280       -1.2692137623
 C          1.8069497711       -0.2479403038       -1.3972558444
 H          2.2120889968        0.7341783524       -1.5878450427
 N          4.0734097584       -1.1490321736       -1.3707916021
 S          4.9004086756       -1.1682810002        0.0890472912
 O          6.2959211247       -0.9917789224       -0.2423523037
 O          4.5533520269       -2.3711485350        0.7992099575
 C          4.2937690084        0.2757549907        0.9409652174
 C          5.0379240168        1.4393214299        0.9045480479
 C          4.5137446861        2.5870349450        1.4760685748
 C          3.2514708593        2.5575079085        2.0513176816
 C          2.5147377899        1.3833188495        2.0754820473
 C          3.0405819206        0.2284259313        1.5176555227
 H          2.4826954440       -0.6939587832        1.5241983989
 H          1.5209845603        1.3505498378        2.4936793472
 H          2.8362171952        3.4552982551        2.4822771908
 H          5.0836614297        3.5023156568        1.4632648385
 H          6.0098222829        1.4183347868        0.4381343272
 H          4.3311038954       -0.3104152469       -1.8741390788
 H          2.8667554920       -3.4164169708       -0.8876214612
 H          0.4116242112       -3.7608915044       -0.7234356851
 H         -1.1183757594       -1.8515100994       -0.9662127153
 H         -0.8922006155        0.7776511744       -2.4279118834
 C          0.1489906695        2.0758671578       -1.0795409247
 C          0.7957961301        2.8858907538       -2.1625442696
 C         -0.4980477162        3.3395653950       -1.5583630098
 H         -0.4936147379        4.2010047710       -0.9078790691
 H         -1.3994368106        3.2407036321       -2.1456605662
 H          1.6912912787        3.4410743498       -1.9258581931
 H          0.7700005529        2.4933297569       -3.1681613354
 H          0.6013428985        2.0872136643       -0.0939804718
