  62
        -98.94182710
 C         -2.2640449920       -0.7207372687        0.1338496841
 C         -3.4560660494       -1.0321746227        0.8407314613
 C         -4.4141035699        0.0639691275        1.0167126668
 C         -4.1012373224        1.2965267795        0.5791602950
 C         -4.9573973647        2.5269323480        0.7093023896
 C         -6.0150308169        2.6708434826       -0.3938296723
 C         -7.1930774207        1.7005458596       -0.2964119385
 H         -7.6194103243        1.7487505055        0.7060180290
 H         -7.9566312093        2.0533313129       -0.9925159680
 C         -6.8453588887        0.2455078500       -0.6408999455
 H         -7.6047875897       -0.1614949843       -1.3122861361
 H         -5.8949702683        0.2166516828       -1.1792076097
 C         -6.7600904644       -0.6885951228        0.5663648698
 H         -6.4737443129       -1.6822270684        0.2118343284
 H         -7.7426162886       -0.7699124446        1.0362321681
 C         -5.7441257252       -0.2533852409        1.6307497670
 H         -5.5994840686       -1.0829510369        2.3270078381
 H         -6.1228341366        0.6060291854        2.1834540546
 H         -5.5258315324        2.5548485989       -1.3638868985
 H         -6.4052608345        3.6897944118       -0.3392068121
 H         -5.4442629036        2.5327532862        1.6849795776
 H         -4.2812550632        3.3828631321        0.6526372189
 O         -2.9205883511        1.5727931218       -0.0328227634
 C         -1.9847475064        0.5772847290       -0.2981096021
 O         -0.9819416205        0.9939262275       -0.9084054117
 O         -3.7066452599       -2.1757992829        1.3043998610
 C         -1.2795590626       -1.8570544998       -0.0859600082
 C          0.1047486444       -1.4400979842        0.3368969176
 C          0.4392371386       -1.4442193242        1.6877401796
 C          1.6893392905       -1.0282107202        2.1054600947
 C          2.6275551952       -0.5891109115        1.1873605016
 C          2.2944839168       -0.5590792416       -0.1596888366
 C          1.0473319509       -1.0033917894       -0.5794097795
 H          0.7948332532       -0.9660299051       -1.6275921928
 N          3.2309585284       -0.1076486738       -1.1029627922
 S          4.1764927812        1.2326068921       -0.7567816662
 O          3.5272958189        2.1456175078        0.1545542117
 O          4.5528486400        1.7671704730       -2.0478840119
 C          5.6221843384        0.5281057693        0.0124180379
 C          6.0555293025        1.0057242990        1.2335709469
 C          7.1893745887        0.4515089763        1.8074228964
 C          7.8676362494       -0.5647699769        1.1525397264
 C          7.4217413452       -1.0315332089       -0.0750634938
 C          6.2896924593       -0.4809659040       -0.6540228045
 H          5.9134989880       -0.8127646451       -1.6071772021
 H          7.9520665480       -1.8215522619       -0.5819621614
 H          8.7490399126       -0.9949622040        1.6012957512
 H          7.5376809366        0.8144784523        2.7610929619
 H          5.4941095495        1.7951062369        1.7081193800
 H          2.8605711446       -0.0512410707       -2.0407080196
 H          3.5985510189       -0.2485345445        1.5075783532
 H          1.9370041933       -1.0412336661        3.1560914657
 H         -0.2983274234       -1.7696152643        2.4084405253
 H         -1.6228484134       -2.6459970844        0.6026337651
 C         -1.3142669550       -2.4600091246       -1.4830215105
 C         -2.6168265184       -2.6296314381       -2.2045963305
 C         -1.5968627072       -1.6600159368       -2.7178271963
 H         -1.0608110246       -1.9127232674       -3.6215083513
 H         -1.7849584318       -0.6034391839       -2.6069145453
 H         -2.7878065949       -3.5410537896       -2.7571185451
 H         -3.5021235543       -2.2333607116       -1.7287068624
 H         -0.5963701969       -3.2682206014       -1.5862198452
