  62
        -98.94398863
 C         -2.7188838508       -1.0133769897        0.1418230091
 C         -2.6632284306       -0.1682002096       -0.9931801909
 C         -3.3403853902        1.1294186605       -0.8561267909
 C         -3.9768993901        1.4244963207        0.2919327792
 C         -4.6425380197        2.7363658809        0.5895618192
 C         -3.6670503994        3.7076905306        1.2698236992
 C         -2.3164451293        3.8240932902        0.5625487892
 H         -1.7208512091        4.5524872100        1.1174454492
 H         -1.7950667096        2.8660718901        0.6294854391
 C         -2.4045954993        4.2492561403       -0.9099884908
 H         -1.6500305890        5.0158267501       -1.0979837508
 H         -3.3787321791        4.6981854406       -1.1069804308
 C         -2.1544235196        3.1211878402       -1.9128134109
 H         -1.2225759598        2.6068833599       -1.6632815309
 H         -2.0266063195        3.5683718902       -2.9019975309
 C         -3.2669871099        2.0710256605       -2.0248938908
 H         -4.2269480798        2.5653274208       -2.1856055908
 H         -3.0485195201        1.4481405005       -2.8970803009
 H         -4.1379924991        4.6908828607        1.3222922392
 H         -3.4895804794        3.3615962605        2.2910074992
 H         -5.0147919196        3.1680870510       -0.3372417108
 H         -5.4845364697        2.5526952711        1.2589740792
 O         -4.0357893503        0.5722037707        1.3482504191
 C         -3.3892131906       -0.6534511995        1.3093736091
 O         -3.4796169608       -1.3176297595        2.3630769991
 O         -2.0723387507       -0.4747507398       -2.0601698109
 C         -1.9944598612       -2.3468428799        0.1185644290
 C         -0.5275197911       -2.1266036403       -0.1680808610
 C          0.2027135786       -2.9059163005       -1.0553952910
 C          1.5439925987       -2.6441865109       -1.2763944311
 C          2.1848819490       -1.6069577111       -0.6246025411
 C          1.4700281193       -0.8339849009        0.2814430290
 C          0.1293094892       -1.1061391705        0.5086063390
 H         -0.4266402906       -0.5027868603        1.2171563490
 N          2.0956380196        0.2365360289        0.9378170190
 S          3.6531826696        0.0685660285        1.5305472889
 O          3.9303353592       -1.2929761316        1.9252309589
 O          3.7671324599        1.0723232884        2.5659982589
 C          4.6833312897        0.5331150482        0.1550065989
 C          5.7127226994       -0.2946256721       -0.2478887312
 C          6.5073649595        0.0953224077       -1.3148788312
 C          6.2603710798        1.2997691978       -1.9554093911
 C          5.2240788301        2.1210239381       -1.5365806711
 C          4.4270631800        1.7377250583       -0.4699847411
 H          3.6136203102        2.3478002085       -0.1138210910
 H          5.0338340504        3.0565783881       -2.0375523511
 H          6.8786501499        1.6008463576       -2.7862766512
 H          7.3136173693       -0.5413051625       -1.6420327612
 H          5.8641996892       -1.2248822122        0.2762542188
 H          1.5035581598        0.7255361191        1.5921535590
 H          3.2264242091       -1.3958802014       -0.8026983411
 H          2.0975044685       -3.2529948310       -1.9748447211
 H         -0.2796308316       -3.7140059603       -1.5800885510
 H         -2.0852461112       -2.7631412399        1.1331121090
 C         -2.6658892815       -3.2911093097       -0.8570670410
 C         -2.6407834219       -4.7702332697       -0.6191133910
 C         -3.9131996317       -4.0020397193       -0.4290693609
 H         -4.7076710317       -4.1293573491       -1.1489312509
 H         -4.2619388316       -3.8260165192        0.5785260691
 H         -2.5652244921       -5.4289833697       -1.4710939010
 H         -2.1293410920       -5.1271902398        0.2621928990
 H         -2.6193140514       -2.9331914796       -1.8790142310
