  62
        -98.94104119
 C         -2.3900809520       -0.2105517075        0.1730669585
 C         -1.5347380037        0.2445784028       -0.8569785798
 C         -1.4442670575        1.7022823853       -1.0202119576
 C         -2.1539658567        2.5027899992       -0.2052472520
 C         -2.1701015873        4.0026480976       -0.2702358108
 C         -1.1179881621        4.6301815699        0.6525877082
 C          0.2816611249        4.0366984337        0.4921974459
 H          0.9494967005        4.5983818200        1.1501581262
 H          0.2824072250        3.0046775287        0.8513352093
 C          0.8281781811        4.0723461019       -0.9418043971
 H          0.2761162385        4.8036946881       -1.5340371901
 H          1.8695904730        4.3996029825       -0.9072740658
 C          0.8118751812        2.7164095479       -1.6498920116
 H          1.2397169547        1.9649724485       -0.9817284292
 H          1.4557833550        2.7819803759       -2.5312700981
 C         -0.5622692892        2.2219741743       -2.1207457031
 H         -1.0675324903        3.0145872232       -2.6774169268
 H         -0.3996826752        1.3771274869       -2.7962529313
 H         -1.0850733696        5.7037513326        0.4544400308
 H         -1.4326491802        4.4851479492        1.6887889947
 H         -1.9959946953        4.3142147791       -1.2986231553
 H         -3.1594592446        4.3445142036        0.0403753873
 O         -2.9457291679        2.0294718232        0.7921192656
 C         -3.0696579686        0.6688795459        1.0136826588
 O         -3.8131637476        0.3669093735        1.9719372125
 H         -0.5656362941       -0.9556947421        1.8366172954
 C         -0.2917682775       -1.8097729573        1.2332394688
 C         -1.2396122523       -2.3809138920        0.3849496358
 C         -0.8449612792       -3.4821969224       -0.3639900739
 C          0.4501457751       -3.9696442752       -0.2819354353
 C          1.3954875279       -3.3604681581        0.5193115519
 C          1.0153750330       -2.2580986568        1.2758391936
 N          1.9400647302       -1.5529533649        2.0780304195
 S          2.2907187174        0.0094926806        1.5755401485
 O          3.2571405807        0.5076577650        2.5314487027
 O          1.0730588531        0.7655288124        1.4461459756
 C          3.0907892377       -0.2033185998       -0.0059012089
 C          2.3361830654       -0.5339369047       -1.1142853050
 C          2.9881543618       -0.7549622519       -2.3186071535
 C          4.3675789912       -0.6461744757       -2.3951957453
 C          5.1096554323       -0.3146265795       -1.2713378155
 C          4.4674803947       -0.0960191730       -0.0638101597
 H          4.9999688376        0.1663584460        0.8361845433
 H          6.1825183378       -0.2274722459       -1.3315703049
 H          4.8659816790       -0.8194569430       -3.3359587074
 H          2.4032830939       -1.0113003582       -3.1872785976
 H          1.2615000459       -0.6067913667       -1.0432992925
 H          2.8087516395       -2.0496902223        2.2251715169
 H          2.4123519671       -3.7214419678        0.5555742816
 H          0.7289184352       -4.8270456082       -0.8754688613
 H         -1.5238685665       -3.9692555145       -1.0392300749
 C         -2.5895841861       -1.7040053850        0.4173254159
 H         -2.9517769499       -1.7806518987        1.4572687720
 C         -3.7492102862       -2.1574991694       -0.4586145274
 C         -3.6324636063       -2.6131489992       -1.8788779630
 C         -4.0892997958       -3.5726548377       -0.8181899706
 H         -5.1342281297       -3.8465300367       -0.8074882956
 H         -3.4364337811       -4.3662580678       -0.4955207828
 H         -4.3640798959       -2.2481714869       -2.5853661230
 H         -2.6435001528       -2.7024692868       -2.2977562153
 H         -4.6041257613       -1.5195953217       -0.2409281542
 O         -0.8886790167       -0.5241235022       -1.6154584082
