  62
        -98.93781271
 C         -1.4290357202       -1.5707781916       -0.3411808115
 C         -1.5372850109       -0.2164235829       -0.7370668935
 C         -2.6367546301        0.5680823899       -0.1331466897
 C         -3.4915241551       -0.0408206504        0.7072515542
 C         -4.6988110246        0.5454917627        1.3884220344
 C         -5.8907077613        0.7298518228        0.4324930109
 C         -5.5349519869        1.2635706420       -0.9532108353
 H         -4.7915911913        0.6071995003       -1.4092779039
 H         -6.4359758701        1.2121918651       -1.5701568295
 C         -5.0283776641        2.7034106461       -0.9875363575
 H         -4.8564173751        2.9643161507       -2.0348938701
 H         -5.8074768662        3.3659644333       -0.6033878599
 C         -3.7398473746        2.9760411568       -0.2100429213
 H         -3.9289396281        3.0008564648        0.8598843757
 H         -3.3967019048        3.9779726749       -0.4854481416
 C         -2.5874001486        2.0258581153       -0.5211614714
 H         -2.3908085046        2.0444535533       -1.5992075413
 H         -1.6764974299        2.4174337710       -0.0475207430
 H         -6.3656800802       -0.2449817268        0.2984611849
 H         -6.6140826313        1.3949858152        0.9068150507
 H         -4.9881830992       -0.1559310694        2.1742546283
 H         -4.4310370315        1.4833297257        1.8670796979
 O         -3.3820241217       -1.3644711083        1.0203437872
 C         -2.3424807493       -2.1393681175        0.5484264379
 O         -2.3446650375       -3.3145833817        0.9713146976
 H          0.6628083015       -0.2576825269        0.4442990404
 C          1.2305433463       -1.1354178143        0.7006987081
 C          0.8736619268       -2.3677545347        0.1732243764
 C          1.6055693156       -3.4896137541        0.5463230397
 C          2.6733591607       -3.3720208884        1.4185305218
 C          3.0246631586       -2.1413725091        1.9426497393
 C          2.2868899389       -1.0146604869        1.5916904684
 N          2.5812546186        0.2275222923        2.1583543804
 S          2.1600363477        1.7030086023        1.5057904673
 O          2.8261272372        2.6515753113        2.3743808774
 O          0.7280669150        1.8312262871        1.4133601221
 C          2.9384431744        1.7541414191       -0.0973429864
 C          4.3090277763        1.9394292710       -0.1140475545
 C          4.9698758987        1.9767446341       -1.3295562025
 C          4.2507351175        1.8327699079       -2.5072614157
 C          2.8779211249        1.6522660122       -2.4724478045
 C          2.2081654448        1.6068118296       -1.2577982087
 H          1.1414847221        1.4482106096       -1.2165981438
 H          2.3129226742        1.5416676905       -3.3839658041
 H          4.7621469530        1.8635537660       -3.4564445323
 H          6.0381228817        2.1196870845       -1.3566626766
 H          4.8256707750        2.0702650367        0.8228990515
 H          3.4164036503        0.2728625202        2.7206139858
 H          3.8484006925       -2.0525934457        2.6339813625
 H          3.2347190005       -4.2498708316        1.7001924229
 H          1.3194734315       -4.4597999942        0.1675911202
 C         -0.2950225258       -2.4836559913       -0.7759672186
 H         -0.6925191705       -3.5071224930       -0.6801980270
 C          0.1124002879       -2.2879069102       -2.2303919070
 C          1.3971624739       -1.6405348555       -2.6407375752
 C          1.2122374144       -3.1142292423       -2.8292805830
 H          1.0797349907       -3.4962052847       -3.8301795264
 H          1.7586081767       -3.7736817303       -2.1730611566
 H          1.3774242616       -0.9975990522       -3.5064428065
 H          2.0652986708       -1.3011236853       -1.8641294160
 H         -0.7470860930       -2.0938713543       -2.8634587789
 O         -0.7675753181        0.3412633169       -1.5607905342
