  62
        -98.93649840
 C         -1.3567892510       -1.6431013802       -0.3784075407
 C         -1.4394992709       -0.3057659398       -0.8293058998
 C         -2.4071480304        0.5679987099       -0.1360708388
 C         -3.1078849001        0.0915379894        0.9075522611
 C         -4.0867658296        0.7661360990        1.8463543620
 C         -4.6968448694        2.1216650093        1.4991050531
 C         -5.6449282899        2.1084836104        0.3007189335
 H         -6.5439724999        1.5511533804        0.5753723534
 H         -5.9423350397        3.1380792306        0.0902998443
 C         -5.0835914405        1.4822817011       -0.9730462772
 H         -4.8797238007        0.4234115109       -0.8010911480
 H         -5.8572605708        1.5411429918       -1.7433740968
 C         -3.8245511406        2.1469148712       -1.5259477272
 H         -3.6337817911        1.7170701918       -2.5127839576
 H         -4.0005492904        3.2164527513       -1.6550634164
 C         -2.5485843803        1.9584382003       -0.6860970978
 H         -1.6881323505        2.1187677506       -1.3420727580
 H         -2.4825599698        2.6919762198        0.1145039627
 H         -3.9126608793        2.8598899292        1.3584761133
 H         -5.2731088390        2.4357297989        2.3738494236
 H         -4.8913083197        0.0416707490        2.0098820118
 H         -3.5563884292        0.8599401182        2.8010875518
 O         -2.9686985603       -1.1990575510        1.3336590302
 C         -2.1051317007       -2.0818278307        0.7147694793
 O         -2.0982265808       -3.2255109611        1.2160344285
 H          1.0626424493       -0.5405309908       -0.1997596509
 C          1.4840077492       -1.4565234012        0.1757066083
 C          0.8753630288       -2.6646521608       -0.1352142623
 C          1.4325233787       -3.8399852313        0.3517275567
 C          2.5627505191       -3.7989770921        1.1498711363
 C          3.1377878895       -2.5899947925        1.4954720669
 C          2.5881246996       -1.4063221820        1.0110132079
 N          3.1497715600       -0.1693692624        1.3492910486
 S          2.2515926904        1.2369791077        1.5429964499
 O          2.8811504310        1.9076661668        2.6635577301
 O          0.8410416004        0.9653109879        1.6761137902
 C          2.6191920400        2.1627559886        0.0653367403
 C          1.7809305096        2.1251530396       -1.0296646494
 C          2.1278293193        2.8474442102       -2.1620033290
 C          3.2970355595        3.5905287500       -2.1828659989
 C          4.1289933599        3.6195166390       -1.0734001392
 C          3.7892666902        2.8999493083        0.0596239204
 H          4.3983150605        2.9051205176        0.9484015902
 H          5.0377960701        4.1993085788       -1.0885319892
 H          3.5592124093        4.1499854805       -3.0670572387
 H          1.4757783390        2.8170425710       -3.0203539088
 H          0.8735782895        1.5415182097       -1.0048376394
 H          3.8950789802       -0.2175743130        2.0280218182
 H          4.0010729697       -2.5576238531        2.1428317766
 H          2.9880796790       -4.7173566525        1.5254959455
 H          0.9618438384       -4.7850655110        0.1235636463
 C         -0.3933721615       -2.6722804800       -0.9509240718
 H         -0.8792128417       -3.6488676300       -0.7910880223
 C         -0.1495940220       -2.5251124790       -2.4451152718
 C          1.1296143179       -2.0074592189       -3.0231622719
 C          0.7934326775       -3.4619078888       -3.1410190028
 H          0.5126486270       -3.8545118881       -4.1065350229
 H          1.3491916376       -4.1536831093       -2.5260656435
 H          1.0627601977       -1.3828281083       -3.9004179715
 H          1.9155049582       -1.7179629396       -2.3431270620
 H         -1.0579044722       -2.2642099985       -2.9778694313
 O         -0.7427576711        0.1692576006       -1.7631208397
