  62
        -98.93954306
 C         -1.5011492193       -1.5034369204       -0.1511921003
 C         -0.6682787585       -2.2005546499       -1.0598137101
 C          0.6741780316       -2.5730405989       -0.5837816798
 C          1.0501875511       -2.2369756186        0.6639871003
 C          2.3332926011       -2.5062743177        1.4206575506
 C          3.6173428015       -2.8599398768        0.6746747710
 C          4.1582786309       -1.7546607965       -0.2308026289
 H          4.4933426102       -0.9234993662        0.3934481911
 H          5.0269970913       -2.1470209259       -0.7640117587
 C          3.1705957708       -1.1901661372       -1.2489591692
 H          2.3622134103       -0.6633623177       -0.7355866394
 H          3.6926593104       -0.4385215469       -1.8482816291
 C          2.5635583217       -2.2065510277       -2.2155197693
 H          2.0155045315       -1.6383745181       -2.9728981095
 H          3.3596236122       -2.7580312471       -2.7201194191
 C          1.5803731023       -3.2149963083       -1.5926342195
 H          0.9373001628       -3.5957239188       -2.3915658997
 H          2.1026351628       -4.0644895379       -1.1586942594
 H          4.3741036214       -3.0592736463        1.4380513012
 H          3.4888174023       -3.7793821969        0.1110532310
 H          2.5082044203       -1.6103006875        2.0237191406
 H          2.1072386515       -3.3180533878        2.1208698806
 O          0.2060875004       -1.5855768592        1.5125049501
 C         -1.0547379798       -1.1590632701        1.1239656398
 O         -1.6489660405       -0.4992517204        1.9961176296
 O         -1.0293938981       -2.4942240102       -2.2318924302
 C         -2.8242602295       -0.9641829014       -0.6676944807
 C         -2.8803329206        0.5154035186       -0.3741718408
 C         -3.9294394912        1.1481699679        0.2776862490
 C         -3.8619712122        2.5044736880        0.5495518889
 C         -2.7507087727        3.2479641287        0.1983168992
 C         -1.6946873221        2.6230006294       -0.4595814205
 C         -1.7822159010        1.2746828994       -0.7623158705
 H         -0.9635623906        0.7961492399       -1.2796102903
 N         -0.5529021425        3.3540323202       -0.8195137403
 S          0.9667969380        2.7361099013       -1.0720883899
 O          1.7629444773        3.8965088918       -1.4116215397
 O          0.9316475790        1.6907314012       -2.0653462699
 C          1.6019916381        2.0705267318        0.4629945703
 C          2.9786752582        1.9705416427        0.5460936506
 C          3.5529535282        1.4538082232        1.6950040708
 C          2.7434807183        1.0387401827        2.7423131906
 C          1.3659794682        1.1462918417        2.6460849803
 C          0.7852457281        1.6684599012        1.4991212101
 H         -0.2884233519        1.7329266805        1.4211973098
 H          0.7235690082        0.8117374113        3.4450868801
 H          3.1873939783        0.6314395530        3.6374961107
 H          4.6259876483        1.3769317739        1.7712789611
 H          3.5688887981        2.3059962831       -0.2913414092
 H         -0.5172659632        4.3031021503       -0.4804906303
 H         -2.6914052034        4.2991207288        0.4353726491
 H         -4.6805866527        2.9866397374        1.0618906587
 H         -4.7869827009        0.5788925273        0.5960003288
 H         -2.7566489892       -1.0871964214       -1.7624313907
 C         -4.0599550291       -1.7299502522       -0.2237708010
 C         -3.9652489982       -3.1637494321        0.2027604591
 C         -4.3044547892       -2.1048272623        1.2061831390
 H         -5.3176694993       -2.0620210030        1.5786010087
 H         -3.5576068795       -1.8206956418        1.9297595392
 H         -4.7404142976       -3.8457196527       -0.1134753510
 H         -2.9810368479       -3.6080781014        0.2413379594
 H         -4.9330709391       -1.4644725828       -0.8124660412
