  62
        -98.94240720
 C         -1.1812509404       -1.5007362697        0.4992439207
 C         -2.1715528904       -1.3207719298       -0.4929907593
 C         -3.3008169503       -0.4421346195       -0.1363700295
 C         -3.3099607302        0.1563239208        1.0673233204
 C         -4.3109085800        1.1502757810        1.5878895602
 C         -3.8394358698        2.5865100409        1.2999963898
 C         -4.2673394098        3.1437732906       -0.0568260103
 H         -5.3448109797        3.3232374908       -0.0488072703
 H         -3.7723934496        4.1100957605       -0.1791419705
 C         -3.9242698399        2.2626671703       -1.2608114101
 H         -3.9247228499        2.8966949501       -2.1498725402
 H         -2.9109988900        1.8702041202       -1.1486900300
 C         -4.9193250401        1.1113354604       -1.4701361898
 H         -5.2580401802        1.1127431002       -2.5082420998
 H         -5.8022025401        1.2896217407       -0.8562918198
 C         -4.3672100203       -0.2934440996       -1.1870869295
 H         -5.1997584104       -0.9585936294       -0.9342599293
 H         -3.9110123704       -0.6935918099       -2.0981744894
 H         -2.7479126498        2.6067527008        1.3735838998
 H         -4.2307484097        3.2477891611        2.0761241497
 H         -4.3583631800        1.0095518413        2.6697594102
 H         -5.2946829500        0.9669639911        1.1660575903
 O         -2.3241233701       -0.0296260792        1.9880107504
 C         -1.2337414503       -0.8355310694        1.7232036505
 O         -0.3883979002       -0.8821195493        2.6414028205
 O         -2.1149772206       -1.8576338800       -1.6308443992
 C          0.0463616994       -2.3422080999        0.2046813808
 C          0.8491818995       -1.7063367003       -0.9061682194
 C          1.4987072393       -2.4272937606       -1.9001497692
 C          2.2398917994       -1.7697334810       -2.8674121594
 C          2.3748976896       -0.3929044910       -2.8513826998
 C          1.7341433997        0.3359695493       -1.8563048699
 C          0.9750534697       -0.3244525403       -0.9050644097
 H          0.4593819798        0.2565850399       -0.1562967198
 N          1.8430750399        1.7334692293       -1.7779302902
 S          1.9568310501        2.4405901697       -0.2636908004
 O          0.6650268402        2.4815887000        0.3747848297
 O          2.5709581703        3.7269949495       -0.5182214207
 C          3.0963565100        1.3975801597        0.6297302198
 C          2.6658600499        0.5662059200        1.6429129900
 C          3.5877251798       -0.2675170800        2.2583399702
 C          4.9132396698       -0.2570237602        1.8551807801
 C          5.3321928599        0.5917402495        0.8413383299
 C          4.4166078200        1.4241944294        0.2206297897
 H          4.7040945801        2.1062065492       -0.5630365804
 H          6.3648896699        0.6034034392        0.5324703998
 H          5.6225542598       -0.9119055202        2.3361154302
 H          3.2523146698       -0.9229077597        3.0465525203
 H          1.6289837900        0.5648093503        1.9426989401
 H          2.4850102200        2.1496040491       -2.4364541904
 H          2.9598099496        0.1147310888       -3.6027068899
 H          2.7296614593       -2.3403503212       -3.6416256293
 H          1.4175381992       -3.5016112906       -1.9226236190
 H          0.6619950695       -2.3055739598        1.1165934808
 C         -0.3325097508       -3.7824242699       -0.0683504188
 C          0.6052699091       -4.8912946300        0.3010407414
 C         -0.6490231609       -4.6763009696        1.0918160714
 H         -1.4551569310       -5.3871615395        0.9903129516
 H         -0.5657010607       -4.2509913094        2.0817463113
 H          0.6597442589       -5.7562193401       -0.3426729984
 H          1.5439216491       -4.6210597500        0.7607040313
 H         -0.9334427108       -3.8920419301       -0.9632239088
