  62
        -98.93496417
 C         -2.7269859282       -0.5652613019       -0.2099233210
 C         -2.1160599354        0.4128160203       -1.0283125254
 C         -2.3382351430        1.8212548429       -0.6531540636
 C         -3.0568971507        2.1171576110        0.4446627681
 C         -3.4392085782        3.4507230956        1.0506031468
 C         -2.6722242672        4.7212366077        0.6895613841
 C         -1.2043045232        4.7356484722        1.1139398592
 H         -0.7559122651        5.6605266073        0.7441734392
 H         -1.1552517177        4.7555201950        2.2055951523
 C         -0.3610552314        3.5543014764        0.6380172975
 H          0.6657262770        3.7204869944        0.9771650462
 H         -0.7029742569        2.6354568946        1.1209166193
 C         -0.3273238099        3.3393274398       -0.8744251348
 H          0.4348053569        2.5820518264       -1.0782156491
 H         -0.0255683768        4.2632499196       -1.3712653200
 C         -1.6433909814        2.8460754453       -1.5028397697
 H         -2.3130457558        3.6726187336       -1.7261948155
 H         -1.4013251550        2.3523300419       -2.4481227327
 H         -2.7585699371        4.9266021758       -0.3733445185
 H         -3.1724543984        5.5413075505        1.2119749191
 H         -4.4956237644        3.6041492060        0.8035188779
 H         -3.3939137633        3.3021598192        2.1341011029
 O         -3.6329320393        1.1408320078        1.2044429240
 C         -3.4800731970       -0.1997825025        0.9096053745
 O         -4.0599657173       -0.9648685239        1.7060987575
 H         -0.0840388790       -1.3191742314       -1.1735996191
 C         -0.0557237399       -2.0003460931       -0.3359432894
 C         -1.2459480001       -2.5079907969        0.1652374249
 C         -1.1925920649       -3.3692471753        1.2543085987
 C          0.0215554091       -3.7009876793        1.8317324683
 C          1.2035476719       -3.1732392294        1.3435766457
 C          1.1579677765       -2.3130394626        0.2546391384
 N          2.3541016283       -1.7319223225       -0.2286254254
 S          3.1324399985       -0.7825144924        0.9403778205
 O          3.9452965955       -1.6550782761        1.7511416625
 O          2.1634084368        0.0192903796        1.6551064650
 C          4.1712566675        0.2542436039       -0.0696911593
 C          3.6994193412        1.4954774089       -0.4520530069
 C          4.4911293590        2.2934743556       -1.2625201729
 C          5.7332354323        1.8361269772       -1.6768516509
 C          6.1925995346        0.5872603023       -1.2854749198
 C          5.4060963078       -0.2153258922       -0.4742923784
 H          5.7233153529       -1.1884461622       -0.1380326512
 H          7.1595666884        0.2374349257       -1.6089642260
 H          6.3472904712        2.4594191745       -2.3074920275
 H          4.1358664691        3.2650581343       -1.5662076418
 H          2.7300727337        1.8120832525       -0.0988186614
 H          2.1623403044       -1.1597509458       -1.0422981636
 H          2.1532677846       -3.3917744777        1.8052358111
 H          0.0465009034       -4.3662835251        2.6818421399
 H         -2.1130795947       -3.7567474998        1.6668164150
 C         -2.5657068989       -2.0647641710       -0.4212789172
 H         -3.3675075329       -2.5354622249        0.1630432495
 C         -2.7092341330       -2.4945956052       -1.8674257154
 C         -3.0559442379       -3.9207487633       -2.1669165661
 C         -4.0672149805       -2.8388890027       -2.3971163653
 H         -4.3084916813       -2.5624196115       -3.4123898896
 H         -4.9023988529       -2.7672374543       -1.7153443136
 H         -2.6013683079       -4.3911646610       -3.0250829458
 H         -3.2067283348       -4.5850844840       -1.3294138522
 H         -2.0288413517       -1.9886386112       -2.5387451398
 O         -1.4058192801        0.1564961217       -2.0386220414
