  62
        -98.93889693
 C         -1.7879807461       -0.1415137033        0.0975591273
 C         -2.8471597054       -0.8136589048        0.7491494094
 C         -4.1849824043       -0.2075203975        0.6339938821
 C         -4.3346240611        0.9312265764       -0.0683607797
 C         -5.5551362517        1.7916458676       -0.3219736182
 C         -6.9584135153        1.2630711143       -0.0360268293
 C         -7.4096426197        0.1211508005       -0.9459530070
 H         -8.3780826828       -0.2368142587       -0.5897269116
 H         -7.5519474712        0.5164953753       -1.9549507652
 C         -6.4489264398       -1.0610710695       -1.0459885674
 H         -5.5099713859       -0.7336863834       -1.4972059613
 H         -6.8922439501       -1.7952082582       -1.7243136221
 C         -6.1455837872       -1.7703996330        0.2722642966
 H         -5.5869836173       -2.6796684413        0.0347544034
 H         -7.0795095759       -2.0679354149        0.7529578355
 C         -5.3091004053       -0.9643256052        1.2812157488
 H         -5.9338868962       -0.2960144486        1.8688451996
 H         -4.8429858600       -1.6714000671        1.9735685137
 H         -7.6435542982        2.1004892603       -0.1940387201
 H         -7.0480396173        0.9766796168        1.0076407803
 H         -5.4929785696        2.0914055446       -1.3730166239
 H         -5.4022045099        2.7033099528        0.2662929362
 O         -3.2765557158        1.5513638124       -0.6699593944
 C         -1.9900188490        1.0399940342       -0.6125681479
 O         -1.1417170357        1.7185058287       -1.2219530503
 O         -2.6825814745       -1.8728727406        1.4120558200
 C         -0.3891228379       -0.7281936919        0.1691490471
 C          0.5532019162        0.2747817115        0.7840060386
 C          0.2414900924        0.7896313386        2.0411225510
 C          1.0513291922        1.7332632166        2.6400332918
 C          2.1978220133        2.1767684527        2.0035460605
 C          2.5218626907        1.6652520748        0.7532592805
 C          1.7075178461        0.7113660955        0.1544344843
 H          1.9726556515        0.3478149064       -0.8239295818
 N          3.6720688400        2.1054524227        0.0881202219
 S          4.5218968810        1.1202243940       -0.9476690465
 O          5.8412493497        1.7148621296       -0.9997800909
 O          3.8449388076        0.9943432854       -2.2139904773
 C          4.6154839672       -0.4750317376       -0.1512448569
 C          4.8909949117       -0.5438043257        1.2001608003
 C          4.9812010762       -1.7880727510        1.8028322437
 C          4.8028827852       -2.9376727868        1.0486256624
 C          4.5366066825       -2.8528285036       -0.3087544368
 C          4.4416349374       -1.6104414475       -0.9152908294
 H          4.2305118171       -1.4968503337       -1.9664125485
 H          4.3993016851       -3.7468021167       -0.8958009935
 H          4.8724050986       -3.9048647986        1.5209387288
 H          5.1893967031       -1.8570713457        2.8583724111
 H          5.0304263170        0.3629110350        1.7653945409
 H          4.2652635465        2.7367293104        0.6043382130
 H          2.8285175741        2.9221248523        2.4635503300
 H          0.7915619052        2.1278196604        3.6107396606
 H         -0.6566010164        0.4450405278        2.5353149346
 H         -0.4693821442       -1.5875530402        0.8511017430
 C          0.0405963405       -1.2287312720       -1.1927100709
 C          1.0316147882       -2.3466514499       -1.3054229829
 C         -0.4100605690       -2.5877077339       -1.6351601826
 H         -0.6887296548       -2.7276364625       -2.6689164860
 H         -1.0067977736       -3.1607501690       -0.9406478930
 H          1.7432339892       -2.3179497734       -2.1161939724
 H          1.4221913837       -2.7625481668       -0.3891610489
 H          0.0675679307       -0.4432098023       -1.9404706258
