  62
        -98.94125913
 C         -1.0190469554       -0.9486517125        0.7709665440
 C         -1.7763592220       -0.8184913625       -0.4162099449
 C         -2.4312307693        0.4828022560       -0.6318112978
 C         -2.2237382799        1.4802591116        0.2431812551
 C         -2.7268732002        2.9011386773        0.1806592727
 C         -4.1919982229        3.1173459314       -0.2245640637
 C         -5.1575249039        2.0018923146        0.2020981133
 H         -4.6669579674        1.3335387144        0.9115633503
 H         -6.0123726820        2.4499968263        0.7118168193
 C         -5.6901930190        1.1886657778       -0.9801291749
 H         -6.6127900092        0.6889391117       -0.6753876153
 H         -5.9426412892        1.8749325944       -1.7913937177
 C         -4.7471450047        0.1107367187       -1.5136947178
 H         -4.6686224413       -0.7047517523       -0.7896134944
 H         -5.1915886513       -0.3069971508       -2.4202474178
 C         -3.3195148953        0.5811642809       -1.8377306748
 H         -2.8949637320       -0.1031268832       -2.5777900122
 H         -3.3170450030        1.5841857490       -2.2585255441
 H         -4.2541803370        3.2461527281       -1.3043676568
 H         -4.5065130485        4.0619303255        0.2225911473
 H         -2.5611633192        3.3071723651        1.1817087497
 H         -2.0787684046        3.4558176339       -0.5054002966
 O         -1.4439364946        1.3268805589        1.3510276245
 C         -0.8253837604        0.1217877556        1.6406428489
 O         -0.1393174622        0.1331474014        2.6829646911
 H          1.4421067642       -0.4211705290        0.2018765140
 C          1.5553046770       -1.3365051773       -0.3605330065
 C          0.7575497667       -2.4282892319       -0.0407654356
 C          0.9257339285       -3.6057125062       -0.7557593984
 C          1.8449338365       -3.6657203271       -1.7900972038
 C          2.5962074268       -2.5592057510       -2.1410170341
 C          2.4462217302       -1.3803208193       -1.4181176377
 N          3.1933469066       -0.2341345444       -1.7253394606
 S          2.5403356564        1.2843923673       -1.4657476837
 O          1.1181550874        1.3227394633       -1.7185299323
 O          3.3487090849        2.1600274400       -2.2906024131
 C          2.8894168227        1.6305333722        0.2442840909
 C          1.9344502661        2.2634065785        1.0135928194
 C          2.2203051434        2.5506346838        2.3384166963
 C          3.4540595431        2.2048407783        2.8662598151
 C          4.4068827489        1.5767684891        2.0782326658
 C          4.1264109134        1.2868221804        0.7530234365
 H          4.8390919130        0.7959026409        0.1115816300
 H          5.3645858692        1.3085505063        2.4945606550
 H          3.6704149041        2.4236716150        3.9000132637
 H          1.4719811844        3.0265221466        2.9513557687
 H          0.9780066693        2.4981511530        0.5717520702
 H          3.7329260312       -0.2822398830       -2.5770701517
 H          3.2884445870       -2.6011184345       -2.9679889574
 H          1.9626051095       -4.5837752082       -2.3456915516
 H          0.3278831268       -4.4697649970       -0.5166981338
 C         -0.2621183697       -2.2350319724        1.0563232508
 H          0.2767324106       -2.0676171305        2.0004424740
 C         -1.2081209286       -3.4029151188        1.2294221415
 C         -0.8066176528       -4.5753452640        2.0718631760
 C         -1.8513402250       -3.6210857912        2.5648825541
 H         -2.8795749554       -3.9489871943        2.5944327159
 H         -1.5884174396       -2.9375798309        3.3592841404
 H         -1.1200166202       -5.5619523987        1.7658131598
 H          0.1662368085       -4.5452082294        2.5385445525
 H         -1.8111100777       -3.5851383396        0.3476369467
 O         -1.9005518048       -1.7415823829       -1.2634556711
