  62
        -98.94119935
 C          2.4794653732        1.3652686028       -0.0384190456
 C          3.2643332873        0.7438640775        0.9684216237
 C          4.1672241389       -0.3277974273        0.5313594803
 C          4.2073791254       -0.6588096995       -0.7716847586
 C          5.0468984811       -1.7578762696       -1.3542195382
 C          4.2805628661       -3.0874446293       -1.3875248459
 C          3.6080733350       -3.4473054923       -0.0624676656
 H          2.8135175701       -2.7255464650        0.1439337821
 H          3.1266659218       -4.4188067473       -0.1955763530
 C          4.5627362667       -3.5091272723        1.1382621992
 H          4.3369935235       -4.4069943298        1.7172728299
 H          5.5918772359       -3.5986987929        0.7886201218
 C          4.4541905708       -2.3219345899        2.0970604031
 H          3.4074094322       -2.1692811529        2.3728209994
 H          5.0002237415       -2.5721124035        3.0104886217
 C          5.0157416346       -0.9921050611        1.5785382670
 H          6.0334414102       -1.1407547814        1.2118263650
 H          5.0508612654       -0.2952622337        2.4209921513
 H          3.5067008543       -3.0235808089       -2.1562831138
 H          4.9759989136       -3.8796071278       -1.6708874919
 H          5.9544910865       -1.8648827579       -0.7632761904
 H          5.3180089699       -1.4797474128       -2.3741098500
 O          3.4429999652       -0.0461717189       -1.7089236328
 C          2.5530609354        0.9682707270       -1.3737833075
 O          1.9150674132        1.4071819191       -2.3497866675
 O          3.2186634064        1.0837244993        2.1809701749
 C          1.5617995702        2.4883175231        0.4155570703
 C          0.1678001598        1.9785896843        0.6776993786
 C         -0.4523609539        2.1840433292        1.9042385931
 C         -1.7269641548        1.6975432523        2.1388557023
 C         -2.4088709015        1.0017183965        1.1568065448
 C         -1.7946611794        0.7837193579       -0.0697120083
 C         -0.5165904065        1.2705149540       -0.3012698934
 H         -0.0420587946        1.0975263801       -1.2564657186
 N         -2.4809289084        0.0829143344       -1.0791652083
 S         -3.0936848997       -1.4316041822       -0.6846619587
 O         -2.3255386231       -2.0524532610        0.3705562123
 O         -3.1701948685       -2.1527744712       -1.9363138760
 C         -4.7443213878       -1.0795459034       -0.1168849611
 C         -5.5922802015       -0.3992624792       -0.9689976874
 C         -6.8809615314       -0.1167045629       -0.5452957081
 C         -7.2985455514       -0.5197453076        0.7145643046
 C         -6.4365278636       -1.2056458556        1.5564222736
 C         -5.1453975962       -1.4903678004        1.1392002682
 H         -4.4379333536       -2.0155740669        1.7611071716
 H         -6.7630840698       -1.5187671711        2.5350780699
 H         -8.3019643258       -0.2981392735        1.0421398310
 H         -7.5540910658        0.4164190524       -1.1972101877
 H         -5.2289773882       -0.1079071947       -1.9403812878
 H         -1.9655385274        0.0373217861       -1.9472707389
 H         -3.4015064747        0.6208044737        1.3329994537
 H         -2.1954521338        1.8626115784        3.0969711541
 H          0.0786485780        2.7141817610        2.6812468045
 H          1.9809326781        2.8086208456        1.3825476407
 C          1.5947196088        3.6958221330       -0.5124629202
 C          0.4367662435        4.1394041082       -1.3505218723
 C          0.8357749977        4.9378235539       -0.1483329480
 H          1.3098258757        5.8965870667       -0.2929485435
 H          0.1927135260        4.8863704736        0.7173643664
 H          0.6550415057        4.5289968522       -2.3332202481
 H         -0.4788788976        3.5716579400       -1.3039692561
 H          2.5788344452        3.8383549781       -0.9480852501
