  62
        -98.94850674
 C          1.2494961441        1.5142011930        0.5029453634
 C          2.1630689656        1.1691799204       -0.5219807401
 C          3.1926676298        0.1862932756       -0.1565572860
 C          3.2154366311       -0.3162779893        1.0910300665
 C          4.1852979318       -1.3507063492        1.5826399637
 C          3.6264240665       -2.7699130173        1.4134143515
 C          3.0678030228       -3.0593903218        0.0197203073
 H          2.7544433077       -4.1062752136        0.0099521416
 H          2.1623785570       -2.4668624750       -0.1366599064
 C          4.0565730921       -2.8127940839       -1.1283864060
 H          5.0766510665       -2.8014835355       -0.7416233026
 H          3.9846244694       -3.6458991889       -1.8309484318
 C          3.8022098265       -1.5343184314       -1.9294814214
 H          2.7479846507       -1.4901216737       -2.2168849745
 H          4.3915801846       -1.5869870623       -2.8490615850
 C          4.1660436920       -0.2206891156       -1.2257839253
 H          5.1801475462       -0.2845395267       -0.8260047844
 H          4.1391008017        0.5765800492       -1.9744487952
 H          4.4215802775       -3.4822231154        1.6433671482
 H          2.8189730704       -2.9153926931        2.1350095955
 H          5.1213562327       -1.2507555746        1.0365134559
 H          4.3721687030       -1.1694358755        2.6427930313
 O          2.3236133750        0.0415782556        2.0496234652
 C          1.2997948941        0.9319845141        1.7682803728
 O          0.5101154722        1.1248073368        2.7165930282
 H         -0.4193440231       -0.1023654382       -0.2513371360
 C         -0.9636974073        0.5337554475       -0.9308535800
 C         -0.7866288283        1.9079522415       -0.8699898713
 C         -1.4746346201        2.7022099484       -1.7795612318
 C         -2.3025679159        2.1227141061       -2.7257086127
 C         -2.4789465200        0.7513676551       -2.7773441205
 C         -1.7973457913       -0.0507908658       -1.8695613034
 N         -1.9293756446       -1.4470347397       -1.8809292568
 S         -1.8678708789       -2.3030728318       -0.4465204519
 O         -0.5216074688       -2.3413388051        0.0656854097
 O         -2.4538969996       -3.5848931564       -0.7765556059
 C         -2.9558931496       -1.4151870552        0.6536075202
 C         -2.4577629883       -0.6528980672        1.6896550056
 C         -3.3439878867        0.0645727876        2.4788464095
 C         -4.7044788260        0.0070878027        2.2228386538
 C         -5.1914243097       -0.7721328374        1.1836377106
 C         -4.3109684694       -1.4867978822        0.3894447430
 H         -4.6498930721       -2.1129815805       -0.4198266812
 H         -6.2507651503       -0.8211347639        0.9900520280
 H         -5.3875404989        0.5701106958        2.8390340290
 H         -2.9531924134        0.6667229571        3.2838436372
 H         -1.3955232193       -0.6173317573        1.8760439246
 H         -2.6264846258       -1.8103695290       -2.5133381332
 H         -3.1250176243        0.3040277540       -3.5168075887
 H         -2.8242557073        2.7500247274       -3.4323378835
 H         -1.3556497002        3.7730838449       -1.7524839395
 C          0.1094907894        2.4705515561        0.2090380944
 H         -0.4828743470        2.5308812256        1.1350657821
 C          0.6407257416        3.8513875026       -0.1193167286
 C         -0.1257278531        5.0753643145        0.2805990317
 C          1.1396321263        4.7162943355        0.9979866496
 H          2.0204080603        5.3179036137        0.8312803283
 H          1.0665537303        4.3193051715        2.0004127917
 H         -0.1122106283        5.9300129593       -0.3789692481
 H         -1.0588702008        4.9343447311        0.8048902472
 H          1.1919922714        3.8715620128       -1.0521087120
 O          2.1212743711        1.6536236563       -1.6832672362
