  62
        -98.94848054
 C         -1.2266830862       -1.5231853122        0.4936659929
 C         -2.1641129247       -1.2178252395       -0.5220655870
 C         -3.2301635624       -0.2786803716       -0.1468070478
 C         -3.2609690225        0.2236642682        1.1007504808
 C         -4.2596768834        1.2279615475        1.5969366520
 C         -3.7444406620        2.6624440629        1.4161051946
 C         -3.2049111953        2.9597494083        0.0165196758
 H         -2.9168854737        4.0137285543       -0.0001373593
 H         -2.2869855728        2.3876748840       -0.1438723475
 C         -4.1970130069        2.6832410701       -1.1219838483
 H         -4.1556308250        3.5164974419       -1.8267459368
 H         -5.2124769983        2.6438255864       -0.7252355198
 C         -3.9145864989        1.4103608960       -1.9224117264
 H         -4.5184597724        1.4411081830       -2.8334627650
 H         -2.8638648802        1.3969158012       -2.2251269787
 C         -4.2274374001        0.0893833517       -1.2081726079
 H         -5.2389509856        0.1214241361       -0.7984150799
 H         -4.1809808200       -0.7104586004       -1.9530596976
 H         -4.5580230496        3.3527283459        1.6483838265
 H         -2.9356244089        2.8353781167        2.1301597491
 H         -4.4319203040        1.0460687506        2.6593644477
 H         -5.1966248591        1.0970407322        1.0590192841
 O         -2.3484981355       -0.1000001377        2.0521894504
 C         -1.2898471997       -0.9449440837        1.7603700779
 O         -0.4838316274       -1.1051240698        2.7008896951
 O         -2.1117643299       -1.6983716105       -1.6845088963
 C         -0.0438197982       -2.4205419707        0.1825535299
 C          0.8042933379       -1.8012303805       -0.9038562464
 C          1.4780256099       -2.5421686570       -1.8670842892
 C          2.2554018015       -1.9055534869       -2.8195624418
 C          2.3983356218       -0.5293447320       -2.8223863136
 C          1.7332276686        0.2194008048       -1.8586487243
 C          0.9462085873       -0.4214012086       -0.9166089052
 H          0.4129119469        0.1745562470       -0.1927259892
 N          1.8392755088        1.6179239489       -1.8089628711
 S          1.8673343209        2.3766846788       -0.3176709705
 O          0.5487327883        2.4049416432        0.2629354326
 O          2.4629437153        3.6680725006       -0.5890222079
 C          2.9876644965        1.3936952302        0.6631048632
 C          4.3249561334        1.4325349470        0.3150941023
 C          5.2261282442        0.6456362946        1.0118166278
 C          4.7765699565       -0.1707874071        2.0391065302
 C          3.4338715702       -0.1943891737        2.3802802385
 C          2.5269657413        0.5942654688        1.6884896736
 H          1.4773942736        0.5842151253        1.9394481317
 H          3.0732051575       -0.8253446620        3.1772328021
 H          5.4752356426       -0.7899202022        2.5793441896
 H          6.2720110395        0.6673278314        0.7515128003
 H          4.6359165744        2.0885971859       -0.4816492713
 H          2.5039810553        2.0218705076       -2.4519334033
 H          3.0063683035       -0.0375729098       -3.5658739911
 H          2.7646397280       -2.4916931798       -3.5692766616
 H          1.3863951846       -3.6159528447       -1.8777013575
 H          0.5628912644       -2.4531239485        1.1005226395
 C         -0.5058152367       -3.8254075504       -0.1460315155
 C          0.3400954081       -5.0066852620        0.2207926187
 C         -0.9238611205       -4.7271902994        0.9752119100
 H         -1.7727684874       -5.3771484088        0.8256779632
 H         -0.8467932571       -4.3353910313        1.9793711096
 H          0.3576987307       -5.8548700378       -0.4469074826
 H          1.2778365358       -4.8162787592        0.7206164509
 H         -1.0801753196       -3.8685500847       -1.0639670724
