  62
        -98.93683770
 C         -1.8806835626       -1.2237145941       -0.1632286712
 C         -2.3135399927        0.0057188312       -0.7145689240
 C         -3.7631438863        0.2613251539       -0.6602378584
 C         -4.5744211469       -0.6607533864       -0.1114844835
 C         -6.0566573046       -0.5131766539        0.0844757966
 C         -6.3405521346        0.4001805003        1.2941195809
 C         -7.0272762085        1.7193917315        0.9403132702
 H         -8.0807495714        1.5255448355        0.7279245824
 H         -6.9814824734        2.3591647755        1.8241623207
 C         -6.4407914591        2.4776648914       -0.2544444810
 H         -6.8432214995        3.4921954815       -0.2161018031
 H         -6.8021964744        2.0352107092       -1.1839573387
 C         -4.9097839998        2.5579473437       -0.3127456887
 H         -4.6348502787        3.5537957197       -0.6665348407
 H         -4.4789205601        2.4457366119        0.6824567624
 C         -4.2511887799        1.5465201593       -1.2695102272
 H         -4.9355710014        1.3238050354       -2.0930664952
 H         -3.3570443460        2.0064798529       -1.7013169348
 H         -5.3935569797        0.6055127581        1.7976172542
 H         -6.9689530969       -0.1302724374        2.0110546797
 H         -6.5072995614       -0.1051928795       -0.8175275274
 H         -6.4620797664       -1.5101831144        0.2577001907
 O         -4.1181241000       -1.8289704518        0.4106379584
 C         -2.7687807340       -2.1385660755        0.4029526333
 O         -2.4897089693       -3.2379914116        0.9220499695
 H          1.4833375375        0.2886041127       -0.9591981461
 C          1.2751351027        0.2998747931        0.0966579166
 C          0.3566029797       -0.5778386035        0.6481847118
 C          0.0939968836       -0.5017397509        2.0147142594
 C          0.7283409271        0.4361244546        2.8047126878
 C          1.6439835976        1.3138198223        2.2497110303
 C          1.9124948768        1.2482177089        0.8880261279
 N          2.8131413105        2.1508879670        0.3030314542
 S          3.9376340771        1.6716699265       -0.8333022916
 O          4.8331873262        2.8015049204       -0.9476917096
 O          3.2882497247        1.2446499909       -2.0453005450
 C          4.7924408261        0.3045114616       -0.0708800598
 C          5.8577205094        0.5795206944        0.7648085221
 C          6.4976693591       -0.4696191819        1.4039948331
 C          6.0582284428       -1.7697164401        1.2042257247
 C          4.9864710915       -2.0286604477        0.3640519926
 C          4.3440551515       -0.9836664627       -0.2815159633
 H          3.5111272233       -1.1489995216       -0.9443349978
 H          4.6466829457       -3.0400099909        0.2072079584
 H          6.5552311715       -2.5866584843        1.7031963906
 H          7.3343085823       -0.2718174537        2.0545270415
 H          6.1737510670        1.6034002093        0.8824412096
 H          3.2169719588        2.8151305532        0.9467764738
 H          2.1350299505        2.0541054230        2.8629498811
 H          0.5117437540        0.4855123432        3.8611970896
 H         -0.6270653945       -1.1851392116        2.4428841993
 C         -0.4058321318       -1.5934486596       -0.1667162145
 H         -0.3402149712       -2.5624461220        0.3480798908
 C          0.0984407482       -1.7637219476       -1.5834500812
 C          1.2794274775       -2.6452957724       -1.8528180597
 C         -0.0935004422       -3.0846733193       -2.2634440792
 H         -0.3423440706       -3.0920864733       -3.3140427205
 H         -0.5714562882       -3.8701615417       -1.6959831000
 H          1.7327213025       -3.1420509996       -1.0080437208
 H          1.9751940250       -2.3522347833       -2.6253382004
 H         -0.0226053583       -0.8736084856       -2.1897637168
 O         -1.5365450726        0.8502064853       -1.2322961655
