  62
        -98.94337893
 C         -1.9359630198       -0.7879803393        0.5307908296
 C         -2.1994385998       -0.1710158195       -0.7152779805
 C         -2.5791818398        1.2472188806       -0.6585215808
 C         -2.6001811997        1.8770160107        0.5302226491
 C         -3.0109851097        3.3059237908        0.7362990389
 C         -4.5146231297        3.4170026008        1.0263034489
 C         -5.3923129997        2.6457217707        0.0405528491
 H         -5.2006843598        1.5764661207        0.1556419392
 H         -6.4318695797        2.8192912207        0.3267151991
 C         -5.1931702498        3.0404884705       -1.4293796910
 H         -6.1732253798        3.1463279804       -1.8990947410
 H         -4.6983522798        4.0104607304       -1.4882421612
 C         -4.4096103098        2.0216592503       -2.2590185008
 H         -4.8472311598        1.0288664203       -2.1286631407
 H         -4.5133753598        2.2899812402       -3.3136056909
 C         -2.9083163498        1.9278580304       -1.9574606109
 H         -2.4480084898        1.3150358802       -2.7381913808
 H         -2.4604550398        2.9230752203       -1.9945536410
 H         -4.7905875697        4.4729467908        1.0141598588
 H         -4.7022304797        3.0275947710        2.0295937490
 H         -2.4529482497        3.7029946509        1.5861301689
 H         -2.7564502497        3.8814421506       -0.1515931912
 O         -2.2937472497        1.2620845009        1.7023025192
 C         -1.9594829497       -0.0815784991        1.7316737694
 O         -1.7120036997       -0.5265741989        2.8729806295
 H          0.5847750202       -0.6458848493        0.3948481895
 C          0.7183716302       -1.5428249194       -0.1939587204
 C         -0.2941156998       -2.4927295894       -0.2364267302
 C         -0.0957756798       -3.6404979895       -0.9936713600
 C          1.0851426102       -3.8220385796       -1.6925449100
 C          2.0899260502       -2.8741895796       -1.6470815702
 C          1.8991631302       -1.7187932595       -0.8956968304
 N          2.8831186202       -0.7171481695       -0.8654790605
 S          2.9808309902        0.3194459807        0.4579248693
 O          2.9601373103       -0.4365605991        1.6909615694
 O          1.9845531502        1.3532449107        0.3178425092
 C          4.6050427302        1.0058681906        0.1917185792
 C          4.7550177802        2.0224078805       -0.7327344410
 C          6.0218000102        2.5335683704       -0.9665469211
 C          7.1115345202        2.0223996805       -0.2771080210
 C          6.9453698703        1.0037236607        0.6489813491
 C          5.6812448402        0.4872027907        0.8867198292
 H          5.5011169903       -0.2984943092        1.6026861594
 H          7.7933320603        0.6104842407        1.1860355092
 H          8.0960553902        2.4224866305       -0.4608465911
 H          6.1541987802        3.3273631303       -1.6838323412
 H          3.8773954902        2.3922844804       -1.2370679210
 H          3.7918091702       -1.0388281796       -1.1688824405
 H          3.0095054302       -3.0171793597       -2.1934395202
 H          1.2261702201       -4.7179604597       -2.2778650399
 H         -0.8667114698       -4.3922919395       -1.0371806699
 C         -1.5433551098       -2.2519457593        0.5779333598
 H         -1.3017081498       -2.4675125891        1.6304710898
 C         -2.7116715998       -3.1208388593        0.1565328999
 C         -2.9072901598       -4.4778270492        0.7610635101
 C         -3.8243778898       -3.3528663592        1.1327673700
 H         -4.8394820798       -3.3680107892        0.7654706600
 H         -3.7207340198       -2.9079496090        2.1122787899
 H         -3.2975887398       -5.2684311593        0.1380795003
 H         -2.1884828398       -4.8061945991        1.4967135102
 H         -2.9792694898       -2.9768496895       -0.8839719601
 O         -2.1255878598       -0.7739958396       -1.8183130504
