  62
        -98.94018929
 C         -1.8851219270       -1.4105222206        0.1820218825
 C         -1.7323709720       -0.0205045183       -0.0139029729
 C         -2.9232594166        0.8199434839        0.2249599047
 C         -4.0715336016        0.2247233441        0.5982341142
 C         -5.4113059301        0.8636911148        0.8496984682
 C         -6.1370464358        1.2490262169       -0.4499131772
 C         -5.2581029284        1.9141011405       -1.5061235505
 H         -4.4280238623        1.2492531163       -1.7523091201
 H         -5.8588494399        2.0298306474       -2.4122326335
 C         -4.7134757818        3.2896176453       -1.1284807806
 H         -4.1778084320        3.6761917569       -1.9993538428
 H         -5.5500396073        3.9629078598       -0.9282597587
 C         -3.7629669433        3.3269181353        0.0697097567
 H         -4.3104118411        3.2525514640        1.0054151766
 H         -3.2797815349        4.3083891773        0.0701110202
 C         -2.6438554623        2.2908845291        0.0293667492
 H         -1.9025766045        2.5506696374        0.7951360345
 H         -2.1147316249        2.3713714445       -0.9270857696
 H         -6.9693867788        1.9082103010       -0.1977758548
 H         -6.5499344717        0.3372040026       -0.8884276693
 H         -6.0168509755        0.1247114727        1.3790286089
 H         -5.2974393458        1.7253594061        1.5007543858
 O         -4.1731485590       -1.1258433613        0.7647890692
 C         -3.0989381954       -1.9717497397        0.5745161361
 O         -3.3408688185       -3.1773599286        0.7877397114
 O         -0.6491082923        0.5091446349       -0.3747112628
 C         -0.7034146012       -2.3379785643       -0.0342639501
 C          0.4602522123       -1.8955116298        0.8191181008
 C          0.2516120526       -1.6871328844        2.1809405135
 C          1.2848373273       -1.2775992632        3.0002576468
 C          2.5485118004       -1.0593528181        2.4783715716
 C          2.7706057076       -1.2735705797        1.1241789008
 C          1.7323606894       -1.7014039353        0.3056416593
 H          1.9357204759       -1.8575214867       -0.7400361646
 N          4.0519087544       -1.0931745911        0.5729727334
 S          4.2855587742       -0.1328681370       -0.7776358157
 O          3.5247843851       -0.6465038385       -1.8865088856
 O          5.7218240678       -0.0991797078       -0.9504540799
 C          3.7123571601        1.4895931908       -0.3061742702
 C          4.6520535648        2.4393090983        0.0481960062
 C          4.2234361735        3.6918952434        0.4548817000
 C          2.8658359363        3.9713113316        0.5081512967
 C          1.9373880950        3.0050676153        0.1549907633
 C          2.3575998236        1.7493922171       -0.2568191336
 H          1.6388206318        0.9931023260       -0.5290137582
 H          0.8786915931        3.2067038240        0.1940884270
 H          2.5294627515        4.9460280455        0.8252370277
 H          4.9458011448        4.4440201212        0.7288377605
 H          5.6964484663        2.1789817581       -0.0137686589
 H          4.7638890740       -0.8823017239        1.2581920325
 H          3.3560970162       -0.7317308804        3.1154150339
 H          1.1053342812       -1.1189990839        4.0529761541
 H         -0.7385296184       -1.8487028208        2.5860480643
 H         -1.0271107820       -3.3300530322        0.3137941134
 C         -0.3725159868       -2.4266073334       -1.5095028639
 C          0.2695077743       -3.6607322962       -2.0654290676
 C         -1.1636824503       -3.3548393364       -2.3788903829
 H         -1.4177480458       -3.0353021499       -3.3785286438
 H         -1.9309192629       -3.9470640998       -1.9011109892
 H          1.0046522692       -3.5482272616       -2.8483887745
 H          0.4769692558       -4.4684764213       -1.3797354645
 H         -0.0847408156       -1.4712968175       -1.9347936141
