  62
        -98.93700350
 C         -1.8017842634        0.9762714621       -0.7692003008
 C         -2.0436401316        0.3244134179        0.4628729184
 C         -3.4534880897        0.2311038918        0.8804791259
 C         -4.4108396073        0.7655426840        0.1032384320
 C         -5.8969565441        0.8193923105        0.3546820464
 C         -6.5713071316       -0.4576300387        0.8770480805
 C         -5.9358391603       -1.7722081187        0.4009981973
 H         -6.7185948340       -2.4189723915       -0.0000515674
 H         -5.2297167005       -1.5767123351       -0.4078930794
 C         -5.2275219861       -2.5343451321        1.5238255734
 H         -5.8548337876       -2.5017605641        2.4173886400
 H         -5.1320534382       -3.5825179416        1.2301507998
 C         -3.8270597723       -2.0345364844        1.8771996114
 H         -3.1307858546       -2.2774322167        1.0697118499
 H         -3.4904438933       -2.5781160214        2.7632204043
 C         -3.7121989078       -0.5261257698        2.1509363535
 H         -4.5895860561       -0.1518183797        2.6727315637
 H         -2.8337942708       -0.3659573126        2.7816316593
 H         -6.5816189168       -0.4444894326        1.9660745151
 H         -7.6126822179       -0.4193434277        0.5530196080
 H         -6.0951310000        1.6390400627        1.0512799749
 H         -6.3371498814        1.0996905270       -0.6052238497
 O         -4.1286595530        1.3944380996       -1.0737020802
 C         -2.8315719508        1.5053735280       -1.5438561210
 O         -2.7290432582        2.0825509444       -2.6459811244
 H          2.0961240629        0.2385724253       -0.4446070625
 C          1.5191292144       -0.5356712839       -0.9201810862
 C          0.2512556960       -0.2602912325       -1.4057074818
 C         -0.4585262685       -1.2811459072       -2.0334865994
 C          0.0814992444       -2.5464513842       -2.1526302502
 C          1.3448054372       -2.8198401885       -1.6576517267
 C          2.0661493895       -1.8067212393       -1.0387143723
 N          3.3319500470       -2.0622258196       -0.4989808957
 S          4.5165637295       -0.8901325910       -0.4411662308
 O          4.5188648969       -0.0700437428       -1.6303184843
 O          5.7359547676       -1.6261954173       -0.1821939874
 C          4.1207477570        0.0988505237        0.9856439920
 C          3.5847971818       -0.5078185035        2.1038758887
 C          3.3047274626        0.2695889822        3.2161825086
 C          3.5701102698        1.6302627776        3.1954063977
 C          4.1160312731        2.2231950418        2.0675677642
 C          4.3957087861        1.4517524330        0.9506930171
 H          4.8102256040        1.8724998264        0.0480558509
 H          4.3218364828        3.2818821132        2.0536244928
 H          3.3480773509        2.2327060017        4.0621770321
 H          2.8753605147       -0.1873168841        4.0932725318
 H          3.3817155551       -1.5654968718        2.0862592967
 H          3.7017162073       -2.9861635365       -0.6630504611
 H          1.7662092028       -3.8096591328       -1.7456270928
 H         -0.4838377856       -3.3286575461       -2.6370438765
 H         -1.4458846402       -1.0681530752       -2.4215618881
 C         -0.3808560130        1.1050959252       -1.2860675049
 H         -0.4594994431        1.5338183216       -2.2962834520
 C          0.4028996298        2.0606699630       -0.4101694798
 C          1.5378667558        2.8541150331       -0.9816915779
 C          0.2497101831        3.5344063588       -0.6306231107
 H          0.2281409787        4.1851951536        0.2303375848
 H         -0.4010007622        3.8500129869       -1.4334152453
 H          2.4002469813        3.0376903281       -0.3590334676
 H          1.7737704424        2.7112444385       -2.0256630931
 H          0.4860940866        1.7130290464        0.6134255553
 O         -1.1305030804       -0.1514926915        1.1849469645
