  62
        -98.94491442
 C         -2.5526215418       -0.0659194366        0.0086578672
 C         -2.4015675191        0.9467629400        0.9840708496
 C         -2.1132056925        2.2938277535        0.4771912739
 C         -2.0166859622        2.4897517514       -0.8504826074
 C         -1.7360819478        3.8120036545       -1.5039660614
 C         -0.2373422507        4.0262910408       -1.7501652614
 C          0.6427698453        3.7558921216       -0.5296564459
 H          0.6319507428        2.6859307516       -0.3081814062
 H          1.6686519697        4.0046712714       -0.8118706359
 C          0.2576014768        4.5471545777        0.7276944290
 H          1.1712360294        4.9247702769        1.1918842440
 H         -0.3488879889        5.4112056695        0.4521968276
 C         -0.4755171436        3.7324141612        1.7955557320
 H         -0.4629406212        4.3036197214        2.7281896373
 H          0.0657791364        2.7985584838        1.9759328068
 C         -1.9395403612        3.3916138003        1.4880445062
 H         -2.3979683796        3.0230479471        2.4106639575
 H         -2.4704833718        4.2940610390        1.1771099215
 H         -0.0903970279        5.0548669346       -2.0865347468
 H          0.0823746838        3.3547337915       -2.5500290794
 H         -2.1274395384        4.6079170011       -0.8727563666
 H         -2.2568584842        3.8325001063       -2.4632097361
 O         -2.1588839066        1.4907819099       -1.7583538718
 C         -2.3937577418        0.1854199756       -1.3538839226
 O         -2.4572379555       -0.6378488809       -2.2873686065
 O         -2.5162254664        0.7343787964        2.2238540281
 C         -2.8110530531       -1.4901068393        0.4621601176
 C         -1.6565960903       -2.3847174660        0.0781183768
 C         -1.8144138576       -3.7109656132       -0.3028596353
 C         -0.7088059258       -4.4831444160       -0.6180564262
 C          0.5669728060       -3.9538882040       -0.5705381850
 C          0.7350862903       -2.6236879923       -0.1963431168
 C         -0.3706247653       -1.8642769301        0.1440185847
 H         -0.2294086628       -0.8402438279        0.4571160218
 N          2.0120820418       -2.0399268005       -0.2002533999
 S          2.2781141785       -0.5019396546        0.4163274453
 O          1.9894162177       -0.4563916825        1.8344264656
 O          1.5928369775        0.4558519791       -0.4129798569
 C          4.0372965454       -0.3827955795        0.1561718459
 C          4.9005646421       -0.6888566515        1.1910662452
 C          6.2668712299       -0.6272840361        0.9656705763
 C          6.7440813243       -0.2645816415       -0.2848333210
 C          5.8655112422        0.0425728296       -1.3133352492
 C          4.4984344907       -0.0163609322       -1.0939135346
 H          3.7765690071        0.2208356742       -1.8583849676
 H          6.2397014467        0.3283024383       -2.2831822652
 H          7.8074676659       -0.2170811181       -0.4582979236
 H          6.9520552112       -0.8617663316        1.7642788768
 H          4.4831201654       -0.9559498372        2.1486146335
 H          2.7675764595       -2.6833199568       -0.0162385683
 H          1.4252988893       -4.5545244401       -0.8281794691
 H         -0.8447532154       -5.5136441756       -0.9093447702
 H         -2.8020508141       -4.1394530790       -0.3538249675
 H         -2.8480159605       -1.4424057902        1.5621588779
 C         -4.1485132323       -1.9848133243       -0.0492914927
 C         -4.9660383686       -2.9427540287        0.7634398685
 C         -5.3992038501       -1.5148751757        0.6294441679
 H         -6.2621424897       -1.2886491676        0.0215710953
 H         -5.2818919790       -0.8610234650        1.4815984772
 H         -5.5372194348       -3.6994111547        0.2469877185
 H         -4.5654255798       -3.2609771447        1.7141715066
 H         -4.1690260670       -2.0776792240       -1.1292284109
