  62
        -98.93839884
 C         -1.7728180023       -1.3620683213        0.1764416419
 C         -1.9913399174       -0.3169716638       -0.7507832255
 C         -3.3500851244        0.2578266752       -0.7919641874
 C         -4.2946319377       -0.1942219854        0.0526261939
 C         -5.7536497639        0.1782111146        0.2128501669
 C         -6.3094327763        1.4565462142       -0.4097166735
 C         -5.7647983201        2.7519815759        0.1909142888
 H         -6.1577582074        3.5889602737       -0.3905724134
 H         -6.1442156094        2.8493111738        1.2112622256
 C         -4.2433239557        2.8621845363        0.2532776910
 H         -3.9963862938        3.8316925397        0.6948106617
 H         -3.8465119556        2.0958686864        0.9227152298
 C         -3.5255954433        2.7675584545       -1.0918272467
 H         -3.9436695866        3.5015318381       -1.7835601586
 H         -2.4770679643        3.0282989316       -0.9228216759
 C         -3.5575131395        1.3837752366       -1.7641702626
 H         -4.4764880375        1.2384161940       -2.3266335878
 H         -2.7270874697        1.3356614249       -2.4743153981
 H         -7.3889013889        1.4419923919       -0.2361319235
 H         -6.1647957388        1.4465977081       -1.4860396816
 H         -6.3222334643       -0.6721179425       -0.1799302515
 H         -5.9367560457        0.1976084383        1.2919502919
 O         -4.0348127257       -1.1952871960        0.9428800428
 C         -2.7953251269       -1.7985429974        1.0242642151
 O         -2.7257301089       -2.7039934949        1.8790907657
 H          0.4625425282        0.4127721798       -0.0995661278
 C          0.9193753719       -0.0345197010        0.7707983252
 C          0.5504085116       -1.3177842227        1.1477471279
 C          1.1564656268       -1.8792294597        2.2652806880
 C          2.1081106426       -1.1744730661        2.9827679702
 C          2.4720606668        0.1056469761        2.6036168063
 C          1.8641441842        0.6767245002        1.4942514672
 N          2.2419458744        1.9785064402        1.0852001798
 S          3.7849985623        2.0590395588        0.4317147287
 O          4.7451845171        1.8338496729        1.4818982444
 O          3.8646131440        3.3331794780       -0.2457724849
 C          3.8318090509        0.7188742523       -0.7432445891
 C          4.2809455419       -0.5211693437       -0.3364707747
 C          4.2273788801       -1.5772211915       -1.2314170713
 C          3.7239926359       -1.3763962466       -2.5073338732
 C          3.2728916923       -0.1255628935       -2.8991644236
 C          3.3209210367        0.9333030895       -2.0074992276
 H          2.9810558687        1.9215476578       -2.2741039910
 H          2.8766865208        0.0261450884       -3.8904878243
 H          3.6831666100       -2.1989683734       -3.2043672514
 H          4.5725436311       -2.5525197387       -0.9282826572
 H          4.6656571511       -0.6344208547        0.6637216655
 H          1.5914502739        2.3698505897        0.4169995216
 H          3.2224487235        0.6648726410        3.1386667092
 H          2.5707852933       -1.6258033266        3.8472240049
 H          0.8714435652       -2.8736921408        2.5760137520
 C         -0.4500851842       -2.0971228530        0.3291090583
 H         -0.6907042132       -3.0163380355        0.8794747429
 C          0.1701286627       -2.4841983638       -1.0012963266
 C          1.0699248960       -3.6794600255       -1.0623233291
 C         -0.2914919953       -3.7331286660       -1.6867207210
 H         -0.3699943724       -3.7297721119       -2.7633377199
 H         -1.0570566951       -4.3174909287       -1.1965409232
 H          1.9306554382       -3.6404370394       -1.7105039888
 H          1.2288698791       -4.2334964164       -0.1497876166
 H          0.4153527966       -1.6339222931       -1.6239662204
 O         -1.1104489379        0.1398440991       -1.5289727593
