  62
        -98.94604394
 C         -1.4247222787       -0.7766086438       -0.0886010888
 C         -2.5283388720       -0.8573780666        0.8011193883
 C         -3.5211150978        0.2170897933        0.7156592526
 C         -3.3337021866        1.2246841264       -0.1554480391
 C         -4.2360435049        2.4144099029       -0.3424866891
 C         -5.4285107458        2.1562692117       -1.2738823331
 C         -6.5298503322        1.2699366455       -0.6905652165
 H         -6.8302387441        1.6598039719        0.2824882217
 H         -7.3923182854        1.3522262052       -1.3549616435
 C         -6.1472324630       -0.2108240177       -0.5589052348
 H         -5.2699597802       -0.4159492942       -1.1766730904
 H         -6.9604038130       -0.8323275990       -0.9404332108
 C         -5.8611137011       -0.6667202693        0.8718859275
 H         -6.7712759898       -0.5887878966        1.4706089890
 H         -5.5649274784       -1.7183259298        0.8440027097
 C         -4.7462521954        0.1196498629        1.5739370021
 H         -5.1000179378        1.1143050702        1.8452157854
 H         -4.4704271751       -0.4148914424        2.4862849567
 H         -5.0572658581        1.7144162014       -2.2014537738
 H         -5.8647397307        3.1272350597       -1.5198453106
 H         -4.5976208318        2.7545747633        0.6286088355
 H         -3.6203978004        3.2043598549       -0.7788047172
 O         -2.2551705757        1.2822921343       -0.9773340448
 C         -1.2810999801        0.2900304550       -0.9773638695
 O         -0.3770672849        0.4923770160       -1.8112521452
 H          0.9138548799        0.4576797352        0.3852234832
 C          1.2743811880       -0.3240469395        1.0341971908
 C          0.6925513607       -1.5822313104        0.9963009305
 C          1.1592284498       -2.5609877183        1.8669013670
 C          2.1834063433       -2.2841331958        2.7536205801
 C          2.7690013152       -1.0315567334        2.7811209478
 C          2.3072327374       -0.0434704888        1.9185067459
 N          2.8691753505        1.2399311311        1.9431914288
 S          3.0389366184        2.1253419765        0.5339461744
 O          4.0553544231        3.1042419605        0.8629128196
 O          1.7667327922        2.6599968767        0.1214844115
 C          3.6956143706        0.9679737637       -0.6531182166
 C          4.9887628756        0.5255646524       -0.4455070686
 C          5.5299694658       -0.4041024992       -1.3167928494
 C          4.7706945764       -0.8757984916       -2.3773776677
 C          3.4785069965       -0.4167431067       -2.5746234515
 C          2.9284878541        0.5144982079       -1.7054725044
 H          1.9193436394        0.8765684151       -1.8301952682
 H          2.8855289618       -0.7791168508       -3.3997281641
 H          5.1883301052       -1.6031966973       -3.0555802058
 H          6.5369304566       -0.7588152682       -1.1672820645
 H          5.5506559886        0.9280860802        0.3816422880
 H          3.6709944662        1.3416516081        2.5477045093
 H          3.5677940043       -0.8116207241        3.4724923330
 H          2.5317528706       -3.0503775841        3.4289573784
 H          0.7009815044       -3.5383091685        1.8580625170
 C         -0.4097196174       -1.8999089503        0.0113514396
 H         -0.9684239695       -2.7580658103        0.4112926760
 C          0.2066535049       -2.3050597816       -1.3138498324
 C          0.7057897522       -3.7050816220       -1.5001682630
 C         -0.5298923314       -3.2482011168       -2.2149312167
 H         -0.4861001006       -3.0800735999       -3.2803480883
 H         -1.4846417682       -3.6213689681       -1.8733343042
 H          1.6067225939       -3.8552399762       -2.0742632570
 H          0.5857993530       -4.3970228356       -0.6809479227
 H          0.7652382893       -1.5062236937       -1.7819287555
 O         -2.6762379953       -1.7965397752        1.6290875326
