  62
        -98.93671947
 C         -2.5754017240       -0.1654749552        0.0498199250
 C         -2.5070857911        0.9398840808        0.9251639788
 C         -2.1380688040        2.2412867178        0.3372548811
 C         -1.8616586741        2.2997986043       -0.9789038683
 C         -1.4235560311        3.4895316392       -1.7920374131
 C          0.0534218335        3.8452864848       -1.5687806479
 C          0.4881888799        3.8866266471       -0.1068380083
 H          0.3459396890        2.8951828976        0.3279123566
 H          1.5630789487        4.0872005560       -0.0921821725
 C         -0.1974101003        4.9470599702        0.7523759400
 H          0.2920269976        4.9348168879        1.7295455663
 H         -0.0260373981        5.9298309575        0.3075860754
 C         -1.7013362126        4.7696407328        0.9771918999
 H         -2.2735668946        5.1102828669        0.1184781432
 H         -1.9827893407        5.4158879959        1.8137254501
 C         -2.1238415126        3.3546994228        1.3572512318
 H         -3.1416337862        3.3900155088        1.7644280103
 H         -1.4960608421        3.0016487027        2.1835537061
 H          0.2505047582        4.8095414870       -2.0416165294
 H          0.6628264529        3.0868063469       -2.0676825625
 H         -1.5589945614        3.2155830871       -2.8409404884
 H         -2.0620955911        4.3435684209       -1.5860097757
 O         -1.9244956821        1.2008199509       -1.7848562008
 C         -2.2496926121       -0.0503413263       -1.3012819234
 O         -2.2323789412       -0.9570316293       -2.1568789379
 O         -2.7348363417        0.8473212524        2.1641547877
 C         -2.8712071049       -1.5444172554        0.6169823765
 C         -1.6355550414       -2.3882413118        0.4221569347
 C         -1.6187943059       -3.6281133349       -0.2015939638
 C         -0.4188678889       -4.2770777057       -0.4434595503
 C          0.7861183001       -3.7036735732       -0.0787707045
 C          0.7735973995       -2.4820304280        0.5765819220
 C         -0.4255727013       -1.8455876627        0.8374586557
 H         -0.4192652559       -0.8787510751        1.3269151166
 N          2.0108418665       -1.8408734145        0.8946230513
 S          2.3666590934       -0.7113661533       -0.3228760330
 O          1.5529668863        0.4748870301       -0.1589315589
 O          2.2841490020       -1.3882179309       -1.5921825505
 C          4.0704947806       -0.3364695344        0.0484140000
 C          5.0134903175       -1.3199440917       -0.1807708658
 C          6.3384776370       -1.0630933063        0.1316215548
 C          6.6961694507        0.1661231798        0.6661296109
 C          5.7384536776        1.1431710170        0.8898222219
 C          4.4103568149        0.8912867654        0.5810974538
 H          3.6310688929        1.6208553682        0.7347564811
 H          6.0187667615        2.0984774148        1.3035780672
 H          7.7282371040        0.3642909445        0.9087246895
 H          7.0863049782       -1.8199820700       -0.0415900444
 H          4.6873900912       -2.2554143835       -0.6037018455
 H          1.9283517590       -1.3127007418        1.7557370859
 H          1.7277914022       -4.1761140335       -0.3043764957
 H         -0.4233447538       -5.2323976620       -0.9459357844
 H         -2.5446833181       -4.0756005063       -0.5245972819
 H         -3.0276894501       -1.3928032623        1.6952804758
 C         -4.1241719323       -2.1386972709        0.0141828984
 C         -4.9021175818       -3.1726266208        0.7710254932
 C         -5.4538016230       -1.7890260117        0.6099284682
 H         -6.2915042147       -1.6393908644       -0.0542860599
 H         -5.4552643853       -1.1339794991        1.4688511350
 H         -5.3653470631       -3.9755129998        0.2180584935
 H         -4.5335581997       -3.4607196355        1.7437948846
 H         -4.0651309800       -2.2254787905       -1.0647684671
