  62
        -98.94849008
 C         -2.3535196633       -0.6319977044        0.1717203599
 C         -1.5437208878       -0.0219005772       -0.8157242174
 C         -1.6923607722        1.4328308293       -0.9662256155
 C         -2.5476266623        2.0958242209       -0.1685090840
 C         -2.7998168940        3.5747675172       -0.2145062418
 C         -1.8889165447        4.3403177766        0.7536034473
 C         -0.4086539277        3.9765475438        0.6351107833
 H          0.1400741841        4.6231079811        1.3244350966
 H         -0.2545872190        2.9505395673        0.9787280075
 C          0.1737347508        4.1256143382       -0.7773115543
 H          1.1491484131        4.6107847196       -0.6998794248
 H         -0.4658167096        4.7732130616       -1.3791049198
 C          0.3945488663        2.7975478470       -1.5038941396
 H          0.9123307477        2.1095335421       -0.8309778767
 H          1.0494377941        2.9793485988       -2.3605899174
 C         -0.8695991906        2.1046526538       -2.0295007642
 H         -1.4751589049        2.8196095897       -2.5912447489
 H         -0.5544352667        1.3097250519       -2.7117153803
 H         -2.0173998079        5.4095137050        0.5717799106
 H         -2.2111270996        4.1284572142        1.7759179139
 H         -2.6441017193        3.9298775049       -1.2316134642
 H         -3.8399166334        3.7512464706        0.0667751864
 O         -3.2791496469        1.4844343035        0.7989780159
 C         -3.1786527578        0.1194040476        1.0107029444
 O         -3.8700204315       -0.3037830829        1.9602106958
 H         -0.3188894166       -1.0321615093        1.8395803165
 C          0.0439281705       -1.8606866154        1.2477530954
 C         -0.8406255973       -2.5702159571        0.4440232752
 C         -0.3485975952       -3.6317099830       -0.3041732678
 C          0.9969643964       -3.9557009904       -0.2610348826
 C          1.8812778245       -3.2145651348        0.5006631386
 C          1.3974549406       -2.1496789666        1.2522227535
 N          2.2577177306       -1.3323230895        2.0171218931
 S          2.3899143825        0.2698931344        1.5377209461
 O          3.3097802653        0.8714471569        2.4801031567
 O          1.0823039854        0.8658573136        1.4561472827
 C          3.1686758065        0.1936786377       -0.0666846124
 C          2.4366982299       -0.2204366850       -1.1618205329
 C          3.0793683084       -0.3281426619       -2.3864320037
 C          4.4277499921       -0.0270299679       -2.4955165074
 C          5.1478001641        0.3849782346       -1.3840048198
 C          4.5151300710        0.4923054463       -0.1566006953
 H          5.0311741594        0.8103448934        0.7349895486
 H          6.1963767983        0.6206177549       -1.4693488636
 H          4.9191219258       -0.1134203984       -3.4518844508
 H          2.5121742752       -0.6492817626       -3.2452989638
 H          1.3850544564       -0.4442736091       -1.0650852403
 H          3.1865816958       -1.7161930664        2.1292143775
 H          2.9355643156       -3.4477258502        0.5098449981
 H          1.3649942407       -4.7832177673       -0.8481462064
 H         -1.0124411351       -4.1932965097       -0.9405078208
 C         -2.2832546347       -2.1260121539        0.4440362124
 H         -2.6704088180       -2.2456065783        1.4701735380
 C         -3.1757518010       -2.9652664775       -0.4591564181
 C         -4.3905196562       -2.3768289867       -1.1109984830
 C         -3.2099504765       -2.7704935530       -1.9442179263
 H         -3.2985953973       -3.6432273858       -2.5744737974
 H         -2.5886385681       -1.9917904572       -2.3566779276
 H         -4.5831150080       -1.3249082349       -0.9557574165
 H         -5.2848715947       -2.9796483282       -1.1625940446
 H         -3.2773472767       -3.9834335186       -0.0963203730
 O         -0.7444510011       -0.6543927339       -1.5545683201
