  62
        -98.94662678
 C          2.4800179502       -0.3834070625        0.0442387997
 C          2.2396717213       -1.5137737273        0.8585958968
 C          1.5550574287       -2.6355949639        0.2094572691
 C          1.2052159523       -2.5419519537       -1.0864951583
 C          0.4742765232       -3.5898911497       -1.8810072635
 C         -1.0484733688       -3.5391999858       -1.6909761259
 C         -1.5546787546       -4.0925455523       -0.3577754063
 H         -2.6334053096       -4.2284207427       -0.4581275343
 H         -1.1152614516       -5.0753105832       -0.1809822431
 C         -1.2859689103       -3.1768441648        0.8442741342
 H         -1.0723773179       -2.1680791035        0.4834439132
 H         -2.1878311177       -3.1157710349        1.4584667834
 C         -0.1497977412       -3.6380458535        1.7576783723
 H         -0.0161825434       -2.8891663906        2.5426281787
 H         -0.4232631167       -4.5823299908        2.2347906459
 C          1.1986418984       -3.8246713805        1.0511225843
 H          1.1822000798       -4.7279419177        0.4416360250
 H          1.9726295086       -3.9313073070        1.8156715130
 H         -1.3747730578       -2.5010641858       -1.7987757395
 H         -1.4994233733       -4.1199095957       -2.4995126480
 H          0.8463805211       -4.5816827486       -1.6212629604
 H          0.6986535279       -3.3964353090       -2.9322816624
 O          1.4988113615       -1.4567469890       -1.8502975875
 C          2.0982710635       -0.3382448921       -1.2972043950
 O          2.2597976077        0.6080225498       -2.0947622420
 O          2.5729699592       -1.5766648340        2.0742055432
 C          3.0753744442        0.8653948985        0.6690687076
 C          2.1200404588        2.0180319180        0.4734340610
 C          2.5264802227        3.3050791823        0.1475489563
 C          1.5886537653        4.2976060186       -0.0819996818
 C          0.2355125820        4.0205802962       -0.0245850642
 C         -0.1810472858        2.7390156795        0.3170385666
 C          0.7600021264        1.7673200270        0.6081566185
 H          0.4275911498        0.7781679850        0.8840504215
 N         -1.5527011803        2.4021236730        0.3773279686
 S         -2.0922836343        1.1592451151       -0.6400384866
 O         -1.2555865916       -0.0016815646       -0.5044918996
 O         -2.2642690526        1.6851386653       -1.9803312694
 C         -3.6900776441        0.8404537661        0.0824727523
 C         -3.7499595855        0.0487409151        1.2127025943
 C         -4.9813865971       -0.1837156764        1.8038811401
 C         -6.1260348412        0.3796865068        1.2594738008
 C         -6.0502951653        1.1716703917        0.1239279114
 C         -4.8211644761        1.4070513108       -0.4721958171
 H         -4.7156726718        2.0063341028       -1.3620666348
 H         -6.9420239560        1.6054598478       -0.2990318144
 H         -7.0829773359        0.1981228563        1.7226898848
 H         -5.0429492550       -0.8006619707        2.6858898205
 H         -2.8353548644       -0.3735593062        1.5963962458
 H         -2.1374445852        3.2092267588        0.1947004548
 H         -0.4943985951        4.7846787871       -0.2482344867
 H          1.9170408590        5.2939141654       -0.3372799655
 H          3.5771084790        3.5290014026        0.0577144262
 H          3.1560447287        0.6489066082        1.7451753146
 C          4.4605711763        1.1356691725        0.1198888579
 C          5.5006339135        1.7987341464        0.9717896584
 C          5.6152777651        0.3403384355        0.6485779894
 H          6.3802037074        0.0206553707       -0.0429716834
 H          5.4035467582       -0.3769620579        1.4279344282
 H          6.1927016813        2.4813614166        0.5020293341
 H          5.2223483002        2.0724185714        1.9781996768
 H          4.4470023568        1.3555022828       -0.9421338587
