  62
        -98.93805221
 C         -2.4574715409       -1.1944535294       -0.0796816166
 C         -3.2276501673       -0.5097559245        0.8867382656
 C         -4.0546930722        0.6068615422        0.3965131292
 C         -4.0290116885        0.9105345220       -0.9131827256
 C         -4.7485402123        2.0348922508       -1.6057502286
 C         -3.8459466847        3.2760770244       -1.7093640678
 C         -3.8943411985        4.2109193619       -0.5012533598
 H         -3.1194756217        4.9677278319       -0.6438870513
 H         -4.8566165444        4.7267008185       -0.4848449025
 C         -3.6791421507        3.5380145898        0.8571096688
 H         -2.8626532110        2.8165278517        0.7857847686
 H         -3.3671952769        4.3070663676        1.5667533263
 C         -4.9411471500        2.8474993460        1.3957305288
 H         -5.8002133429        3.1665892905        0.8060080001
 H         -5.1266191635        3.1815351997        2.4187289945
 C         -4.8832116878        1.3129862894        1.4351709712
 H         -4.4604346884        0.9899359123        2.3920059689
 H         -5.9033272646        0.9165887050        1.3962667020
 H         -2.8206524846        2.9318791041       -1.8685654556
 H         -4.1381382106        3.8493737862       -2.5913732756
 H         -4.9736023992        1.6840846600       -2.6149504586
 H         -5.6804704789        2.2667724157       -1.0989949964
 O         -3.2621605863        0.2311908742       -1.8098456439
 C         -2.4559725131       -0.8266451671       -1.4251726348
 O         -1.8035345037       -1.3417606213       -2.3513088968
 H         -0.2868139885       -0.0620615047        0.7601164918
 C          0.3746896731       -0.8103505377        0.3393288367
 C         -0.1313013179       -2.0721133529        0.0509810193
 C          0.7343473258       -3.0255423461       -0.4686340566
 C          2.0607673930       -2.7113112153       -0.7103220913
 C          2.5530182596       -1.4479436249       -0.4414421375
 C          1.7000421167       -0.4895297717        0.0906490984
 N          2.1872210576        0.8029356258        0.3567420239
 S          3.5753770260        0.9439530453        1.2926391126
 O          3.6992067663       -0.1548687140        2.2224188584
 O          3.5079170791        2.2689620016        1.8695598313
 C          4.9021406328        0.8940948628        0.1069668227
 C          4.8804115162        1.8019580518       -0.9336160030
 C          5.9111911633        1.7824796419       -1.8594726658
 C          6.9419107680        0.8636558599       -1.7276793721
 C          6.9511517977       -0.0383839636       -0.6748292447
 C          5.9220700659       -0.0254958636        0.2539598022
 H          5.8829999356       -0.7117001481        1.0848249771
 H          7.7534283998       -0.7515204235       -0.5740985032
 H          7.7424352286        0.8508494351       -2.4503459792
 H          5.9070131816        2.4821124190       -2.6797644787
 H          4.0630727499        2.5007805663       -0.9985269365
 H          1.4777719169        1.4428342348        0.6836782649
 H          3.5827228858       -1.1975565092       -0.6373429807
 H          2.7199131145       -3.4613973017       -1.1197434990
 H          0.3697850303       -4.0154086882       -0.6882254131
 C         -1.5823606895       -2.3534826629        0.3579941238
 H         -1.6913284947       -2.4060794458        1.4522727741
 C         -2.0878991970       -3.6487821665       -0.2427983761
 C         -1.9151352942       -4.9440827585        0.4909922359
 C         -3.2727156954       -4.3194839049        0.3830773277
 H         -4.0055828525       -4.7799550453       -0.2622214336
 H         -3.6959653538       -3.8562794468        1.2626518392
 H         -1.7181674658       -5.8383054774       -0.0808743057
 H         -1.4191651177       -4.9139704490        1.4494870326
 H         -2.0216969606       -3.6572146840       -1.3249457832
 O         -3.2164688116       -0.8098854193        2.1128763468
