  62
        -98.93134827
 C         -2.2591645482        0.5825071701        0.2311911224
 C         -3.5118766464        1.1259795822        0.6093161886
 C         -4.6957662034        0.6346326648       -0.1161431941
 C         -4.5251614665       -0.2490284786       -1.1142300943
 C         -5.5909064148       -0.9177944834       -1.9375066387
 C         -5.9714963358       -2.2779455945       -1.3282448361
 C         -7.0626405443       -2.2227396263       -0.2596479139
 H         -8.0193428844       -1.9973724694       -0.7354166480
 H         -7.1405785415       -3.2213428779        0.1763970687
 C         -6.8270092904       -1.2123466620        0.8662433878
 H         -7.4352017684       -1.5155704672        1.7207091361
 H         -5.7833132508       -1.2523517622        1.1838819761
 C         -7.2010297372        0.2253983358        0.4758599791
 H         -7.8606196731        0.6461475426        1.2375510052
 H         -7.7732441192        0.2043187857       -0.4514060714
 C         -6.0185851000        1.1952539323        0.3303087796
 H         -5.8087565160        1.6622940419        1.2977043926
 H         -6.3023362352        2.0045156470       -0.3506721878
 H         -5.0653006963       -2.7215065289       -0.9073351112
 H         -6.3151849438       -2.9365853647       -2.1283963979
 H         -6.4601468595       -0.2749230636       -2.0391606645
 H         -5.1592790145       -1.0877116287       -2.9259862714
 O         -3.2977568042       -0.7045395424       -1.4845167246
 C         -2.1375974063       -0.3132312993       -0.8319465101
 O         -1.1034035138       -0.8239351632       -1.2993881967
 O         -3.6379868464        1.9873452875        1.5211053973
 C         -1.0322219596        1.0542377595        0.9896625956
 C          0.0814132392        1.4067486139        0.0372399499
 C         -0.0916180616        2.4849133885       -0.8274330550
 C          0.9027587583        2.8449503202       -1.7155943925
 C          2.0986845860        2.1493387980       -1.7483707015
 C          2.2776515125        1.0669705253       -0.8958326733
 C          1.2721843229        0.7013336618       -0.0117675119
 H          1.4310912240       -0.1549353507        0.6220785276
 N          3.4670352316        0.3224113512       -0.9231034734
 S          4.0461814697       -0.3253619895        0.5218680349
 O          3.4186548218       -1.6006862806        0.7595602227
 O          3.9291733487        0.6503009403        1.5830844005
 C          5.7615200056       -0.5715097961        0.0983318310
 C          6.6920157458        0.3869911108        0.4531178691
 C          8.0174212114        0.2004869586        0.0929863560
 C          8.3873348737       -0.9332161796       -0.6148249472
 C          7.4423007051       -1.8869000300       -0.9633578489
 C          6.1156428889       -1.7073199052       -0.6053056675
 H          5.3479082649       -2.4243700700       -0.8457982819
 H          7.7339588915       -2.7684399191       -1.5111668401
 H          9.4192073313       -1.0762612339       -0.8940898550
 H          8.7548900519        0.9381464498        0.3654507511
 H          6.3594030827        1.2476174087        1.0108874632
 H          4.1991318933        0.7605838102       -1.4645496948
 H          2.8797459102        2.4328137473       -2.4375259981
 H          0.7515099714        3.6809046991       -2.3820760225
 H         -1.0239900839        3.0328701358       -0.7965556293
 H         -1.3575473903        1.9844689549        1.4861705321
 C         -0.5847903441        0.1092229847        2.0947852568
 C         -1.5753649786       -0.7175267633        2.8567648627
 C         -0.5986349866       -1.3800793435        1.9343747802
 H          0.2186043725       -1.9454589969        2.3593600276
 H         -0.9573674476       -1.7794996899        0.9984029717
 H         -1.4392519524       -0.8309377470        3.9216736782
 H         -2.6099002109       -0.6637627684        2.5502706680
 H          0.2400074303        0.5234815598        2.6687840136
