  62
        -98.94009594
 C         -2.2916102145       -1.0770943334        0.1515882914
 C         -1.8354533547       -0.2270538003       -0.8838515618
 C         -2.4340860906        1.1182779879       -0.9206103852
 C         -3.3636898060        1.4519766865       -0.0091193224
 C         -4.0037319128        2.8012828296        0.1579537362
 C         -3.2650204028        3.6077736221        1.2390180021
 C         -2.0400769348        4.3770468409        0.7434295841
 H         -2.3711781258        5.2290412948        0.1460541037
 H         -1.5296220810        4.7755230859        1.6236828425
 C         -1.0331941148        3.5676642468       -0.0811238015
 H         -0.8995678756        2.5802301200        0.3665658305
 H         -0.0701762425        4.0807101498       -0.0229177958
 C         -1.4273387362        3.4295893267       -1.5598438025
 H         -2.1813710172        4.1835480827       -1.7876722087
 H         -0.5586672773        3.6634418425       -2.1781551795
 C         -1.9442812889        2.0439617332       -1.9983119715
 H         -2.7396502356        2.1762607351       -2.7376148469
 H         -1.1411993833        1.4871557198       -2.4894509071
 H         -3.9591600483        4.3267108732        1.6787621081
 H         -2.9702063314        2.9142391898        2.0314178814
 H         -5.0301418955        2.6317127141        0.4892430511
 H         -4.0187086410        3.3375485117       -0.7867383981
 O         -3.7982198142        0.5919538715        0.9510715287
 C         -3.2639600867       -0.6813337640        1.0679455395
 O         -3.7234436070       -1.3489756966        2.0171567172
 O         -0.9601292104       -0.5626855235       -1.7214337972
 C         -1.6876283224       -2.4601609296        0.3039244987
 C         -0.1850298287       -2.3673629453        0.4309454330
 C          0.6796844512       -3.2899059994       -0.1445155523
 C          2.0496346105       -3.1591009529        0.0065903336
 C          2.5887092290       -2.1065041140        0.7226261457
 C          1.7329407760       -1.1760072912        1.2985143525
 C          0.3611286072       -1.3204100918        1.1621902353
 H         -0.2992969049       -0.5946985075        1.6218716645
 N          2.2640501599       -0.0880384949        2.0110106140
 S          3.5817222416        0.7134756104        1.3594997223
 O          4.7895505632        0.0101981787        1.7161348334
 O          3.4764456432        2.0689026662        1.8536285943
 C          3.3670623283        0.6745655787       -0.4107895387
 C          4.3212219870        0.0620409873       -1.1977171928
 C          4.1389582650        0.0313698846       -2.5705806495
 C          3.0113903387        0.6123976404       -3.1291964185
 C          2.0661462734        1.2299903166       -2.3253547031
 C          2.2409850449        1.2613657963       -0.9522120051
 H          1.5177738998        1.7326217169       -0.3057007871
 H          1.1867648844        1.6756525114       -2.7606321336
 H          2.8650798794        0.5846894430       -4.1974530675
 H          4.8732331663       -0.4468791617       -3.1985882055
 H          5.1829028412       -0.3759876380       -0.7206098265
 H          1.5688227661        0.5657057005        2.3387878766
 H          3.6527963668       -1.9919403049        0.8504823128
 H          2.7081380747       -3.8851178768       -0.4448118078
 H          0.2801270518       -4.1117032081       -0.7154919155
 H         -2.0866591911       -2.8674856667        1.2449994091
 C         -2.1340860206       -3.3499586198       -0.8389849535
 C         -2.3426236518       -4.8180779727       -0.6237342283
 C         -3.5220785990       -3.9133674869       -0.8121665399
 H         -4.0755693503       -3.9686195010       -1.7375098558
 H         -4.1333615626       -3.6798603656        0.0478666870
 H         -2.0891489097       -5.4979682486       -1.4231887474
 H         -2.1613158416       -5.2111457539        0.3653404949
 H         -1.7454295266       -3.0205729922       -1.7956857256
