  62
        -98.93856197
 C         -2.4007807692       -1.2024431280       -0.0783477775
 C         -3.4821390313       -0.8008195976        0.7446692256
 C         -4.4024377412        0.2018544009        0.1849445759
 C         -4.1698962201        0.6932837227       -1.0441824790
 C         -4.9859426660        1.6881104872       -1.8316679219
 C         -5.5579923799        2.8952443085       -1.0774729020
 C         -4.6705345420        3.4305996656        0.0556663994
 H         -3.6796783416        2.9753687506        0.0024491603
 H         -4.5400278325        4.5066665112       -0.0738190691
 C         -5.2679954031        3.1932842686        1.4446242649
 H         -4.8053668918        3.8891590756        2.1485694253
 H         -6.3351221951        3.4232951458        1.4107747782
 C         -5.0767975913        1.7858157301        2.0078405794
 H         -4.0231232384        1.6254185890        2.2519687544
 H         -5.6363045581        1.7193684435        2.9439275338
 C         -5.5216759325        0.6382761573        1.0863499574
 H         -6.4112009974        0.9074322769        0.5223560427
 H         -5.7552119669       -0.2253246091        1.7148438636
 H         -5.7169324391        3.6811428873       -1.8178737697
 H         -6.5372559125        2.6428883187       -0.6734057332
 H         -5.8051620214        1.1470347179       -2.3144998515
 H         -4.3194616440        2.0352161571       -2.6252320657
 O         -3.1062355092        0.2915643615       -1.7961583758
 C         -2.1977928101       -0.6519826469       -1.3425054210
 O         -1.2869976931       -0.9055777811       -2.1556146558
 O         -3.6794636278       -1.2720384392        1.8956528553
 C         -1.4281673382       -2.2311460461        0.4757791839
 C         -0.1191624256       -1.5365462740        0.7574086219
 C          0.0419329762       -0.8447333658        1.9549257541
 C          1.2030995844       -0.1408331897        2.2123637774
 C          2.2242065043       -0.1027344315        1.2782751949
 C          2.0650602169       -0.7735743025        0.0738128235
 C          0.9073186091       -1.4998547041       -0.1731652347
 H          0.7918425575       -2.0047790821       -1.1191085777
 N          3.0894890638       -0.7309476614       -0.8878539887
 S          3.7745210623        0.7585313424       -1.2486469172
 O          2.8492701191        1.8467112285       -1.0304916738
 O          4.3013204158        0.6191291717       -2.5890475355
 C          5.1376614643        0.8763060923       -0.1066671531
 C          6.0251236078       -0.1800736881       -0.0394728375
 C          7.0965090419       -0.0994545779        0.8355470492
 C          7.2640475832        1.0307459282        1.6219236313
 C          6.3668473254        2.0844596637        1.5401503349
 C          5.2921346782        2.0095574917        0.6675050402
 H          4.5653631146        2.8010959159        0.5750730271
 H          6.4982788048        2.9626449834        2.1517541709
 H          8.0985120043        1.0907392434        2.3026278891
 H          7.7960179758       -0.9170866548        0.9021160027
 H          5.8603431240       -1.0389434754       -0.6682486674
 H          2.8580015446       -1.2269258452       -1.7369981012
 H          3.1274288796        0.4543136699        1.4664973340
 H          1.3156238972        0.3868286117        3.1472976984
 H         -0.7640500553       -0.8556341584        2.6753999251
 H         -1.8592202452       -2.5477593509        1.4349889610
 C         -1.2992521106       -3.4427499905       -0.4229893461
 C         -0.6618863590       -4.6875684132        0.1157971447
 C         -2.1371554647       -4.6529053270       -0.1438371010
 H         -2.5281909153       -5.2113662406       -0.9811346954
 H         -2.8053701857       -4.6130539335        0.7037651626
 H         -0.0374770934       -5.2736343748       -0.5409794144
 H         -0.3272455342       -4.6691355924        1.1418408216
 H         -1.1276247900       -3.1928191003       -1.4628643273
