  62
        -98.93910245
 C          1.9682822568        0.8441196872        0.7024035062
 C          1.9495270376        0.1851394428       -0.5521920262
 C          2.1825835359       -1.2642732691       -0.5153060581
 C          2.3296243602       -1.8931788357        0.6634882531
 C          2.5303548152       -3.3711145618        0.8632269173
 C          3.9852482075       -3.8348952926        0.7068787457
 C          4.5154259976       -3.8444433336       -0.7274587243
 H          5.4594180509       -4.3926936733       -0.7157673155
 H          3.8242512554       -4.3975522930       -1.3639810508
 C          4.7613281189       -2.4502302188       -1.3207097792
 H          4.7960876507       -1.7131959683       -0.5150726179
 H          5.7350890522       -2.4308912351       -1.8149447663
 C          3.7213654683       -2.0073235387       -2.3497856791
 H          3.7648798566       -2.6641437744       -3.2212200635
 H          3.9720907540       -0.9952807026       -2.6772297944
 C          2.2805605733       -1.9911260352       -1.8224503063
 H          1.6533822020       -1.4586031468       -2.5417374114
 H          1.9035628311       -3.0084875769       -1.7183704121
 H          4.6216523543       -3.1995927835        1.3272918490
 H          4.0455577261       -4.8518262715        1.1013264261
 H          2.2037465239       -3.5916847670        1.8820279463
 H          1.8919857506       -3.9204795844        0.1703918944
 O          2.2875367388       -1.2336223882        1.8529386079
 C          2.1006325525        0.1379207411        1.8990003108
 O          2.0672050898        0.6083500864        3.0563423594
 H         -0.5896812001        0.9810607188        0.7848133340
 C         -0.6436741666        1.8351185973        0.1239261028
 C          0.4591348832        2.6732189600        0.0036591502
 C          0.3653784475        3.7742056440       -0.8357815380
 C         -0.8031228124        4.0168814318       -1.5390628463
 C         -1.8863947723        3.1656214745       -1.4373659565
 C         -1.7962263735        2.0496954598       -0.6093369307
 N         -2.8517200929        1.1247349421       -0.5492101051
 S         -2.8725456749       -0.1305090866        0.5618537890
 O         -2.9294406308        0.3801574908        1.9161988104
 O         -1.7975461725       -1.0444054708        0.2645735246
 C         -4.4309665016       -0.8808552671        0.1302837107
 C         -4.4885966568       -1.6517554883       -1.0156761746
 C         -5.6967511845       -2.2253543207       -1.3778046755
 C         -6.8215462161       -2.0201311264       -0.5921622031
 C         -6.7481059738       -1.2462664856        0.5560019881
 C         -5.5424342805       -0.6685479236        0.9230829300
 H         -5.4345390646       -0.0659985141        1.8105660354
 H         -7.6230105861       -1.0914897039        1.1665234355
 H         -7.7603755321       -2.4689413069       -0.8755964088
 H         -5.7563265581       -2.8298267458       -2.2684647607
 H         -3.5854379512       -1.7898155381       -1.5874439422
 H         -3.7646472764        1.5205631549       -0.7191429359
 H         -2.7882330427        3.3483389660       -2.0005622843
 H         -0.8655210693        4.8794720927       -2.1851588790
 H          1.2081819799        4.4352274254       -0.9534702797
 C          1.6817004783        2.3312809932        0.8228812674
 H          1.4162874417        2.4794103729        1.8842256636
 C          2.8760003074        3.2330382645        0.5447658025
 C          4.2777075207        2.7047622952        0.6047699406
 C          3.6874008804        3.1143052510       -0.7091327652
 H          4.0509859317        4.0202430125       -1.1717311448
 H          3.4031431382        2.3449322432       -1.4088569440
 H          5.0406602007        3.3275497796        1.0476691404
 H          4.4057928010        1.6500207377        0.8026251569
 H          2.7293484108        4.2344422316        0.9377949860
 O          1.7478967411        0.7628720195       -1.6514785843
