  62
        -98.94451037
 C          1.2969254604        1.7528494001       -0.6937595209
 C          2.4940102805        1.6252117303        0.0578802489
 C          3.4095700703        0.5548290500       -0.3458251909
 C          3.1072009700       -0.2110460004       -1.4091893705
 C          3.9149786797       -1.3684064007       -1.9284204802
 C          3.6140097497       -2.6844698104       -1.1974350096
 C          4.1932967601       -2.7860318499        0.2143260503
 H          4.1144555200       -3.8321662497        0.5171148408
 H          5.2535699501       -2.5299377500        0.1927925800
 C          3.4708757704       -1.9195492893        1.2558294301
 H          3.2967055506       -2.5092772189        2.1594313204
 H          2.4858938204       -1.6377530894        0.8731520603
 C          4.2332105607       -0.6623099192        1.6778848194
 H          5.1512367208       -0.9501888991        2.1957880793
 H          3.6078770609       -0.1063949989        2.3814728993
 C          4.5986564605        0.2806523902        0.5237911489
 H          4.9272563107        1.2318152404        0.9500800684
 H          5.4132160203       -0.1409467601       -0.0646315711
 H          4.0276384795       -3.4977657507       -1.7987677693
 H          2.5296756497       -2.8190942803       -1.1512749692
 H          4.9793714897       -1.1427134608       -1.8585289906
 H          3.6505035394       -1.4892334012       -2.9811708801
 O          1.9945724198       -0.0065053306       -2.1558567303
 C          1.0258574500        0.9205054797       -1.7805328205
 O          0.0176715598        0.8963890095       -2.5104262302
 O          2.7738193509        2.3716218507        1.0349812485
 C          0.2762232706        2.7341691804       -0.1433674710
 C         -0.4432314592        2.0955780310        1.0224084094
 C         -0.8005692088        2.8241220815        2.1507221092
 C         -1.4366611786        2.2019308021        3.2112455896
 C         -1.7111543788        0.8465890921        3.1776305303
 C         -1.3395859891        0.1040232416        2.0606188405
 C         -0.7333686893        0.7401583910        0.9886153201
 H         -0.4393612596        0.1571448406        0.1323290202
 N         -1.5348089493       -1.2775941384        2.0228808711
 S         -1.4959113298       -2.2143633890        0.6458389515
 O         -1.8342397198       -3.5361381388        1.1300590622
 O         -0.2253432799       -2.0934446594       -0.0228802889
 C         -2.8417113099       -1.6139628793       -0.3581692184
 C         -2.6231610701       -0.8448738598       -1.4818241788
 C         -3.7196803803       -0.3945157700       -2.2033804587
 C         -5.0036506202       -0.7134964396       -1.7933869283
 C         -5.2061524800       -1.4906524491       -0.6620459579
 C         -4.1174769999       -1.9444676990        0.0620242621
 H         -4.2292160897       -2.5667940586        0.9348859123
 H         -6.2053474000       -1.7428926289       -0.3455636975
 H         -5.8494820103       -0.3573732098       -2.3599432782
 H         -3.5512721804        0.2076759396       -3.0817207990
 H         -1.6199684502       -0.5938191100       -1.7907666892
 H         -2.0706037292       -1.6815477880        2.7740448714
 H         -2.1866501186        0.3600995325        4.0151222006
 H         -1.7110557683        2.7770376725        4.0825304894
 H         -0.5543902887        3.8741446715        2.2067715087
 H          0.8639505408        3.5753674505        0.2593741184
 C         -0.6776276496        3.2957677401       -1.1851827810
 C         -2.0909105997        2.8253789902       -1.3285081805
 C         -1.8118282494        4.1916472104       -0.7828679011
 H         -2.0299759194        5.0492941902       -1.4008990615
 H         -1.9794157091        4.3506650709        0.2708592488
 H         -2.4864047699        2.7305251298       -2.3274224404
 H         -2.4413857596        2.0622813105       -0.6500648101
 H         -0.1617480798        3.5491243797       -2.1052344813
