  62
        -98.93816212
 C         -2.0483714303       -1.3411629700        0.0151747208
 C         -2.6672949002       -0.6216713697        1.0633861607
 C         -3.8631432299        0.1597035306        0.7074758106
 C         -4.2858458299        0.1709501106       -0.5685926594
 C         -5.4958543596        0.8566645910       -1.1528095695
 C         -5.8038802492        2.2827937511       -0.6781413496
 C         -4.5703171690        3.1383914107       -0.3548303096
 H         -3.6660975791        2.6428361404       -0.7134445496
 H         -4.6494410487        4.0902452607       -0.8834147797
 C         -4.4293276889        3.4419154308        1.1387427303
 H         -3.7867126187        4.3175554606        1.2598119703
 H         -5.4124202689        3.7011248711        1.5375791503
 C         -3.8280718193        2.3188066207        1.9827893805
 H         -2.7670552893        2.2047110404        1.7434804005
 H         -3.8877830993        2.6182032308        3.0319868204
 C         -4.4928412397        0.9413406809        1.8248804805
 H         -5.5679397597        1.0359935112        1.6945068305
 H         -4.3014944499        0.3704398409        2.7375982206
 H         -6.3802449890        2.7609507612       -1.4719501297
 H         -6.4494512893        2.2451620713        0.1981295003
 H         -5.3249506396        0.8598455408       -2.2321260495
 H         -6.3674480498        0.2220751712       -0.9674349595
 O         -3.6398979000       -0.5139040396       -1.5542045893
 C         -2.5096036703       -1.2749949800       -1.2987814192
 O         -2.0260233804       -1.8271553402       -2.3041182391
 O         -2.2418331602       -0.6339058398        2.2504911208
 C         -0.8135026006       -2.1702748003        0.3219392209
 C          0.3746916996       -1.5861524308       -0.4021152391
 C          1.1944111794       -2.3125291711       -1.2544869490
 C          2.2486609196       -1.6949750714       -1.9066823590
 C          2.5157395800       -0.3525086515       -1.7151968291
 C          1.7169420702        0.3779434888       -0.8430212691
 C          0.6620795700       -0.2420535508       -0.1921258091
 H          0.0360115801        0.3289206394        0.4824504208
 N          1.9891276206        1.7374627987       -0.6235371292
 S          3.5820213408        2.2222020383       -0.4685622192
 O          3.5333850211        3.4164852584        0.3456587807
 O          4.1726928509        2.3767686080       -1.7747656792
 C          4.4011966003        0.9016053381        0.4085646109
 C          5.4763530602        0.2570109877       -0.1683226790
 C          6.0859624498       -0.7790360224        0.5210790711
 C          5.6095236196       -1.1527981422        1.7677843311
 C          4.5305959998       -0.4926691818        2.3360687010
 C          3.9188009502        0.5452785783        1.6524007309
 H          3.0807120703        1.0800560686        2.0701892109
 H          4.1612502297       -0.7837986416        3.3062927511
 H          6.0812156694       -1.9624263223        2.3017968112
 H          6.9264020597       -1.2923133527        0.0826122412
 H          5.8118302603        0.5782167376       -1.1410025690
 H          1.3966164007        2.1741455890        0.0663222407
 H          3.3176133702        0.1453799482       -2.2355889091
 H          2.8684064395       -2.2676376817       -2.5794068389
 H          1.0002092991       -3.3587019510       -1.4217108189
 H         -0.6458366006       -2.0507954303        1.4025052809
 C         -1.0571089010       -3.6338851003        0.0255503710
 C         -0.2673183614       -4.6859037505        0.7435895712
 C         -1.7160749713       -4.4844544900        1.0683652711
 H         -2.4275885115       -5.2312912298        0.7494431411
 H         -1.9714386812       -4.0128614999        2.0061520510
 H          0.0164905284       -5.5761997406        0.2033075112
 H          0.4640426187       -4.3551669306        1.4651353012
 H         -1.3302520410       -3.8114908403       -1.0082201590
