  62
        -98.94481076
 C         -1.8474355032       -0.0584797623        0.1081743554
 C         -2.8395864047       -0.8748391227        0.7019325765
 C         -4.1787007268       -0.2839701485        0.7987966101
 C         -4.3876567636        0.9702749724        0.3586046108
 C         -5.6925745942        1.7180405235        0.4070360215
 C         -6.6315210677        1.4099338787       -0.7674756672
 C         -7.2926795358        0.0315302216       -0.7283124801
 H         -7.7695777735       -0.1138656027        0.2414951997
 H         -8.0823855113        0.0340181649       -1.4823314954
 C         -6.3395897276       -1.1368929903       -1.0162745761
 H         -6.8082087400       -1.8224306288       -1.7259768588
 H         -5.4312778729       -0.7579467057       -1.4905900907
 C         -5.9503246219       -1.9555878884        0.2145982612
 H         -6.8357935933       -2.4486946415        0.6217654298
 H         -5.2469159539       -2.7311290202       -0.0988058309
 C         -5.2884604112       -1.1389602505        1.3322001940
 H         -4.8540758480       -1.8349017966        2.0540261635
 H         -6.0318552675       -0.5255963620        1.8407426939
 H         -7.4190675067        2.1670638861       -0.7619438926
 H         -6.0722614183        1.5198069330       -1.6995582717
 H         -6.2027126821        1.5065451402        1.3471934782
 H         -5.4424681300        2.7807612448        0.3780296916
 O         -3.3996502314        1.7328847061       -0.1816193241
 C         -2.1133579542        1.2354808137       -0.3393574906
 O         -1.3180877638        2.0315438547       -0.8738112855
 O         -2.6144519822       -2.0363444126        1.1355243566
 C         -0.4453407885       -0.6153946038       -0.0618270138
 C          0.5578507720        0.2743704783        0.6272679761
 C          0.3170631951        0.6558062519        1.9458312050
 C          1.1902324781        1.4919992649        2.6116810053
 C          2.3327385629        1.9560742899        1.9826468053
 C          2.5898277634        1.5721546803        0.6731950268
 C          1.7107758689        0.7272923126        0.0062651430
 H          1.9306262918        0.4594490724       -1.0132995330
 N          3.7371805586        2.0318641697        0.0098679276
 S          4.5999845948        1.0003128701       -0.9779894370
 O          5.9256996400        1.5785045055       -1.0322592254
 O          3.9356392626        0.8327733971       -2.2453518601
 C          4.6480379702       -0.5505337878       -0.0965321910
 C          4.1341835774       -1.6889858467       -0.6807818338
 C          4.1666933873       -2.8801707123        0.0270777116
 C          4.7077360423       -2.9105978796        1.3025737047
 C          5.2252115746       -1.7583051220        1.8748718355
 C          5.1971132281       -0.5658773461        1.1708984260
 H          5.6016241004        0.3439591208        1.5833433075
 H          5.6483989271       -1.7863410727        2.8660182889
 H          4.7281460433       -3.8381116195        1.8527322174
 H          3.7687184389       -3.7777556118       -0.4190882619
 H          3.7190725406       -1.6208317838       -1.6728739391
 H          4.3455227425        2.6131024283        0.5669497887
 H          3.0116158372        2.6195836789        2.4963054743
 H          0.9826490386        1.7861489766        3.6294382970
 H         -0.5772984677        0.2964254713        2.4363233007
 H         -0.4544130276       -1.5882078315        0.4523784014
 C         -0.1567591339       -0.8441645032       -1.5303528661
 C          0.7517417531       -1.9541099284       -1.9623883706
 C         -0.7245980511       -2.0611063726       -2.1954549505
 H         -1.0988531663       -1.9709080794       -3.2043044779
 H         -1.2923112722       -2.7419497089       -1.5780970139
 H          1.3937209723       -1.7867871240       -2.8146268764
 H          1.1864732699       -2.5697862683       -1.1898550334
 H         -0.1472714069        0.0772540829       -2.1028383424
