  62
        -98.93891923
 C          1.4694199295        1.3771083301        0.2434345787
 C          2.1068730105        0.4209146207        1.0750746187
 C          3.1821196109       -0.3648632386        0.4569866885
 C          3.4923749203       -0.1510173086       -0.8342659016
 C          4.5203224706       -0.9245778380       -1.6071113518
 C          3.8888245413       -2.1356123285       -2.3087796714
 C          2.9996345622       -2.9846390790       -1.3995215910
 H          2.1295344119       -2.3948099496       -1.1005648409
 H          2.6295057726       -3.8208178194       -1.9970459708
 C          3.7017296830       -3.5236339683       -0.1449777112
 H          3.4353702538       -4.5754021285       -0.0208428209
 H          4.7831530929       -3.4777684276       -0.2785682315
 C          3.3203063528       -2.8093917684        1.1530942288
 H          2.2317343528       -2.7658100292        1.2410094091
 H          3.6949082035       -3.4038952280        1.9903042388
 C          3.8709212518       -1.3871466080        1.3160978984
 H          4.9473884918       -1.3845576872        1.1346661981
 H          3.6946269619       -1.0785067279        2.3504164184
 H          3.2802849008       -1.7745921391       -3.1415280313
 H          4.6894037016       -2.7544896180       -2.7179719116
 H          4.9545291699       -0.2654817078       -2.3607812421
 H          5.3063515811       -1.2525551273       -0.9296630920
 O          2.8528411494        0.7644109908       -1.6052765316
 C          1.8075975190        1.5318803601       -1.1016457314
 O          1.2823874882        2.2810800696       -1.9454552614
 O          1.7789160410        0.2248806107        2.2741324288
 C          0.3221069091        2.1614318694        0.8491825589
 C         -0.9185220110        2.0559384084       -0.0030703807
 C         -1.8006706319        3.1083785577       -0.2131067806
 C         -2.9697823819        2.9191961467       -0.9314561902
 C         -3.2886210712        1.6801721164       -1.4568051999
 C         -2.4045852604        0.6279506871       -1.2705237700
 C         -1.2407529903        0.8169178880       -0.5438899204
 H         -0.5631802497       -0.0155696215       -0.3935066505
 N         -2.7432638096       -0.6570883332       -1.7737259597
 S         -3.7209308087       -1.5197341938       -0.7166109893
 O         -3.8288921979       -2.8532295440       -1.2630280490
 O         -4.9508446991       -0.7917121246       -0.5434691890
 C         -2.7921871382       -1.5460026829        0.8054109005
 C         -1.8686088274       -2.5533165122        1.0030976703
 C         -1.0435106671       -2.4977264714        2.1147832801
 C         -1.1420233476       -1.4317622013        2.9958490599
 C         -2.0766691284       -0.4301097020        2.7842170501
 C         -2.9095630687       -0.4822457528        1.6778079803
 H         -3.6441328593        0.2806737066        1.4757501204
 H         -2.1474685288        0.3989668380        3.4699126000
 H         -0.4759869474       -1.3733644907        3.8418089797
 H         -0.3164223865       -3.2760821909        2.2852789800
 H         -1.8171712270       -3.3605165923        0.2891039004
 H         -1.9302087193       -1.2202000327       -1.9834188299
 H         -4.2040311612        1.5086761657       -1.9987629896
 H         -3.6432921126        3.7491245962       -1.0812903301
 H         -1.5731314324        4.0847654279        0.1817456492
 H          0.1067682898        1.6222325094        1.7888296791
 C          0.6667390182        3.5902039397        1.2476133786
 C          2.0878847879        4.0569093307        1.3431231181
 C          1.1971529072        4.5867107199        0.2618347083
 H          0.8587815065        5.6102322997        0.3323650182
 H          1.3595667772        4.2452325799       -0.7481814517
 H          2.3582816677        4.7107426211        2.1588730979
 H          2.8666783783        3.3615618113        1.0644528680
 H         -0.0058134718        3.9752956993        2.0076273788
