  62
        -98.93738657
 C         -2.2665122206       -0.6332421401       -0.1137199801
 C         -3.5528083206       -1.1463651401       -0.4232547601
 C         -4.6824164606       -0.5317065002        0.2821865800
 C         -4.4513723106        0.4126545097        1.2114088801
 C         -5.4941316505        1.1255519096        2.0288294302
 C         -6.1246918706        2.3300967997        1.3164563804
 C         -7.0874029306        1.9830960898        0.1800425904
 H         -7.6161875106        2.9013757999       -0.0829529695
 H         -7.8305070406        1.2708226598        0.5397931603
 C         -6.4077663906        1.4283741600       -1.0798031597
 H         -5.3404648606        1.6610863000       -1.0504884497
 H         -6.8172069806        1.9238655101       -1.9630499196
 C         -6.5817832906       -0.0768891500       -1.2837768399
 H         -6.0335509906       -0.3662016798       -2.1842861800
 H         -7.6375825806       -0.3047702200       -1.4455544999
 C         -6.0686572706       -0.9354925701       -0.1200524900
 H         -6.0288195606       -1.9758068001       -0.4518231202
 H         -6.7478240905       -0.8636283803        0.7289919500
 H         -5.3240917606        2.9677615397        0.9341594805
 H         -6.6744207106        2.9017958496        2.0676970405
 H         -6.2753987605        0.4232391195        2.3204581901
 H         -4.9913528605        1.4824648195        2.9301714603
 O         -3.1979101406        0.8232420897        1.5367073902
 C         -2.0761173306        0.3347453598        0.8738971101
 O         -1.0082126606        0.8352718697        1.2712994001
 H          1.3723474094        0.0269145700       -0.6182184000
 C          1.2406534894       -0.8081320001        0.0492523799
 C          0.0551252994       -1.5246134801        0.0572104698
 C         -0.0862705405       -2.5725683502        0.9632309996
 C          0.9355131195       -2.8943377203        1.8352778896
 C          2.1244985695       -2.1869715903        1.8131144197
 C          2.2706878295       -1.1312281502        0.9210973698
 N          3.4501078795       -0.3706985302        0.9035160099
 S          3.9782936394        0.2922035600       -0.5525699300
 O          3.2880402394        1.5337762301       -0.7945743898
 O          3.8993175694       -0.6964015698       -1.6058330002
 C          5.6825016094        0.6283020600       -0.1466902600
 C          5.9678878794        1.7434232499        0.6189635102
 C          7.2850934894        1.9996152298        0.9645428202
 C          8.2897059894        1.1418225999        0.5410419200
 C          7.9884041694        0.0284121800       -0.2285889001
 C          6.6725151294       -0.2348676199       -0.5762212301
 H          6.3913204394       -1.0838181999       -1.1783221602
 H          8.7719661594       -0.6342852699       -0.5588571702
 H          9.3141987094        1.3444717799        0.8104676701
 H          7.5231176494        2.8658969398        1.5605508103
 H          5.1550524894        2.3856278998        0.9162301203
 H          4.2055040595       -0.7940052302        1.4243979598
 H          2.9258338595       -2.4397361904        2.4907895296
 H          0.8105179795       -3.7088043904        2.5330329895
 H         -1.0145084905       -3.1279197302        0.9773716296
 C         -1.0857731106       -1.2082321000       -0.8746936901
 H         -1.4621084106       -2.1611959699       -1.2843089803
 C         -0.6521742006       -0.3666272998       -2.0661354700
 C         -1.6531203806        0.3952419003       -2.8804949999
 C         -0.6563662006        1.1309811602       -2.0384945398
 H          0.1556970894        1.6516042903       -2.5259626698
 H         -0.9962050606        1.6149752701       -1.1357517898
 H         -2.6819752906        0.3750813602       -2.5515617899
 H         -1.5365364506        0.4135215704       -3.9535627899
 H          0.1604581894       -0.8350763297       -2.6152346501
 O         -3.7470222106       -2.0776749800       -1.2490722202
