  62
        -98.93007606
 C         -2.4396478902       -1.0296120101        0.5163535502
 C         -2.6096929301        0.2801298401        1.0291225098
 C         -3.9168456299        0.9255095103        0.8157975594
 C         -4.8794935399        0.2543417603        0.1566292194
 C         -6.3135102198        0.6198507504       -0.1664665809
 C         -6.8107117995        2.0525472106        0.0041490686
 C         -6.2125234992        3.0559076402       -0.9816177716
 H         -6.5453449690        4.0563626603       -0.6972051020
 H         -6.6105431590        2.8428478799       -1.9768591116
 C         -4.6894419692        3.0496729098       -1.0863045514
 H         -4.4022688889        3.7917360296       -1.8362357315
 H         -4.3494171993        2.0778345597       -1.4499668210
 C         -3.9429758893        3.3834977001        0.2037662087
 H         -4.2912785492        4.3421827803        0.5933475183
 H         -2.8832011692        3.4891149998       -0.0455002212
 C         -4.0501444797        2.3329608504        1.3220818990
 H         -4.9698366098        2.4529763008        1.8898701388
 H         -3.2158623998        2.4891460405        2.0125953591
 H         -6.6586564796        2.3836086409        1.0272076885
 H         -7.8908409595        2.0296474307       -0.1638110416
 H         -6.9312911800       -0.0376352593        0.4550514492
 H         -6.4758468697        0.3046855202       -1.2020260008
 O         -4.6722477101       -1.0071757599       -0.3176294801
 C         -3.4645878702       -1.6773069101       -0.1728555797
 O         -3.4599053804       -2.8060180903       -0.6945887594
 O         -1.7027191100        0.8865959201        1.6636567598
 C         -1.0940357704       -1.6882925403        0.7567467807
 C         -0.1355011901       -1.4301254408       -0.3782503592
 C         -0.5164277100       -1.6106131512       -1.7042388292
 C          0.3843186003       -1.3783886216       -2.7275143792
 C          1.6751299003       -0.9646921818       -2.4505952191
 C          2.0691576301       -0.7884359915       -1.1287015890
 C          1.1609392399       -1.0183435210       -0.1040862991
 H          1.4702720197       -0.8551056208        0.9172856709
 N          3.3918446701       -0.4234226917       -0.8279546389
 S          3.7158925201        0.5473469387        0.5143523008
 O          3.6029154497       -0.2562173609        1.7051126811
 O          2.9169289503        1.7511732688        0.4658291003
 C          5.4308054102        0.9259994583        0.2073541610
 C          5.7727878405        2.1450777280       -0.3462474193
 C          7.1079798806        2.4124811677       -0.6057925691
 C          8.0724324604        1.4605954576       -0.3113552287
 C          7.7138165701        0.2417606578        0.2454596616
 C          6.3810880500       -0.0315036018        0.5085541415
 H          6.0560104697       -0.9599428916        0.9481169317
 H          8.4668097999       -0.4945612023        0.4756369820
 H          9.1105407605        1.6710823373       -0.5144971486
 H          7.3900206809        3.3602593875       -1.0353207194
 H          4.9894551107        2.8573195581       -0.5506407096
 H          3.8977964103       -0.0973008220       -1.6405307389
 H          2.3751171005       -0.7833456722       -3.2520380490
 H          0.0765401304       -1.5190948319       -3.7528176992
 H         -1.5212177200       -1.9406093410       -1.9214088293
 H         -0.6863349504       -1.1778088001        1.6450994106
 C         -1.2042304407       -3.1685897502        1.0984102411
 C         -0.7629175808       -4.2641466705        0.1799296215
 C          0.0316861890       -3.9591524903        1.4118748916
 H          0.0033095788       -4.6564670501        2.2354434218
 H          0.9823949692       -3.4618303106        1.2865656916
 H         -1.3607640610       -5.1620560604        0.1527761217
 H         -0.3478886006       -3.9900808809       -0.7768696385
 H         -2.0804726309       -3.3758728298        1.7046944510
