  62
        -98.94443397
 C         -2.6457127024       -1.3060795227        0.1135792907
 C         -2.5801092670       -0.2940901353       -0.8746394854
 C         -3.5995334142        0.7619403794       -0.7786096587
 C         -4.5214018520        0.7069301508        0.1994709948
 C         -5.5801975497        1.7420426776        0.4428747663
 C         -5.0917063285        2.8136344207        1.4274904753
 C         -3.7162994101        3.3868557244        1.0852179461
 H         -3.4894926351        4.1546133201        1.8281313501
 H         -2.9625435904        2.6033058558        1.1951545638
 C         -3.6127477378        3.9921892164       -0.3216464276
 H         -4.6105512243        4.1954359010       -0.7123392934
 H         -3.0893357638        4.9481929855       -0.2536115757
 C         -2.8409535284        3.1350935097       -1.3270634562
 H         -1.8727592695        2.8527004603       -0.9034315039
 H         -2.6414614070        3.7462650114       -2.2117106953
 C         -3.5521624732        1.8614390270       -1.8019251327
 H         -4.5570582477        2.1095223961       -2.1497547466
 H         -2.9844376811        1.4610302214       -2.6471033381
 H         -5.8269439233        3.6198307621        1.4531349635
 H         -5.0380914083        2.3697127783        2.4241051282
 H         -5.8562833655        2.2019655615       -0.5038550859
 H         -6.4554446337        1.2455662645        0.8650577212
 O         -4.5621963151       -0.2888729175        1.1204915250
 C         -3.6198893777       -1.3020041272        1.1151496951
 O         -3.7557697084       -2.1333135174        2.0346016233
 O         -1.7256089385       -0.2658037889       -1.8000029028
 C         -1.6271252347       -2.4351175779        0.1584063257
 C         -0.2879372750       -1.8394432097        0.5181124155
 C         -0.0117065875       -1.5529869751        1.8524650734
 C          1.1765237010       -0.9459988551        2.2120043969
 C          2.1097054447       -0.6011727902        1.2489443496
 C          1.8347062553       -0.8649798742       -0.0853846009
 C          0.6499808957       -1.4970230819       -0.4422873474
 H          0.4449729015       -1.6856473308       -1.4839044719
 N          2.7687005963       -0.5106702012       -1.0729842506
 S          3.4832117551        1.0052839899       -0.9962014892
 O          2.6279175299        1.9754689817       -0.3525106943
 O          3.8866112161        1.3018864694       -2.3536341330
 C          4.9429783577        0.7270453972       -0.0128644467
 C          5.2172607598        1.5497649454        1.0619322250
 C          6.3657019313        1.3228239547        1.8046717788
 C          7.2159590022        0.2833955310        1.4603647843
 C          6.9278271867       -0.5322926224        0.3762049687
 C          5.7822179274       -0.3099978049       -0.3708352993
 H          5.5238023058       -0.9194037720       -1.2205440192
 H          7.5911212663       -1.3399952512        0.1117546238
 H          8.1081282252        0.1079693710        2.0405137722
 H          6.5910833885        1.9563847278        2.6474997098
 H          4.5239241155        2.3419385376        1.2965550785
 H          2.4538675852       -0.7095831820       -2.0119330891
 H          3.0325127066       -0.1154305870        1.5209891143
 H          1.3789455696       -0.7346450338        3.2510863948
 H         -0.7506904313       -1.8019013253        2.6018354657
 H         -1.9407729055       -3.0887704429        0.9830032770
 C         -1.6194217085       -3.2412396870       -1.1233897615
 C         -0.9486372369       -4.5809857426       -1.1402085448
 C         -2.4429176639       -4.4897897075       -1.2045696417
 H         -2.9353874394       -4.7212708495       -2.1371777206
 H         -3.0119675392       -4.7699808968       -0.3301198841
 H         -0.4133202351       -4.8797482163       -2.0284624203
 H         -0.5012892346       -4.9236340712       -0.2194960846
 H         -1.5613052597       -2.6313272165       -2.0162169972
