  62
        -98.93898545
 C         -1.9308958202       -1.3865787297        0.2891990242
 C         -2.5663568982       -0.7310265475       -0.7905382074
 C         -3.7315904199        0.1080310922       -0.4540817769
 C         -4.1223539250        0.2177104058        0.8294661629
 C         -5.2868188838        0.9565322711        1.4557039796
 C         -6.0356133026        2.0365871538        0.6789753793
 C         -5.2156592027        3.2881357755        0.3672150658
 H         -5.8182927914        3.9413750123       -0.2675131537
 H         -5.0222870929        3.8198916094        1.3024072047
 C         -3.8690122292        3.0442308350       -0.3100070219
 H         -3.3961475408        4.0163960167       -0.4751582745
 H         -3.2164868078        2.4825153836        0.3620270107
 C         -3.9325759525        2.3245623352       -1.6560919089
 H         -2.9309705079        2.3595768769       -2.0939912257
 H         -4.6090522991        2.8585504581       -2.3261769490
 C         -4.3601962907        0.8473546086       -1.5993605743
 H         -5.4426994431        0.7481981566       -1.5758668258
 H         -4.0042515666        0.3593436814       -2.5113609353
 H         -6.4570884890        1.6223085537       -0.2320614062
 H         -6.8772504004        2.3425548033        1.3063619917
 H         -6.0052071813        0.1838653802        1.7513666428
 H         -4.8996778625        1.3878530939        2.3843901277
 O         -3.4713921435       -0.4336218757        1.8385748623
 C         -2.3636214392       -1.2291613143        1.6032405477
 O         -1.8565088070       -1.7239487792        2.6310314690
 H          0.1097993226        0.1639275214        0.7410036733
 C          0.6693752461       -0.1987974601       -0.1130413586
 C          0.3720502586       -1.4539652327       -0.6306652441
 C          1.1109054835       -1.9138384664       -1.7123964541
 C          2.0934051910       -1.1197413082       -2.2796511763
 C          2.3669420268        0.1391594399       -1.7790724684
 C          1.6484771226        0.6000193760       -0.6824222926
 N          1.9308068766        1.8702676040       -0.1522241628
 S          3.5366666734        2.2964202178        0.0467127408
 O          3.5445352084        3.2442251880        1.1390943898
 O          4.0698071788        2.7758485981       -1.2040683357
 C          4.3693164286        0.7899777813        0.5172709386
 C          3.9511492389        0.1465647268        1.6653429905
 C          4.5651643166       -1.0403292306        2.0301414678
 C          5.5824508368       -1.5609787288        1.2446727949
 C          5.9947829769       -0.9002434688        0.0981654928
 C          5.3823324648        0.2862207974       -0.2727839707
 H          5.6688247463        0.8308619110       -1.1576257885
 H          6.7873444720       -1.3064433624       -0.5092456068
 H          6.0557617582       -2.4869634477        1.5305479020
 H          4.2445122218       -1.5549494667        2.9218497924
 H          3.1601973105        0.5782512675        2.2580769793
 H          1.3814839085        2.1098582321        0.6594558027
 H          3.1135758132        0.7771800429       -2.2232781515
 H          2.6505003875       -1.4850025807       -3.1286227928
 H          0.9104865906       -2.8905298722       -2.1204470527
 C         -0.7163714191       -2.2606064001        0.0363940378
 H         -0.3527257856       -2.5687568458        1.0277966573
 C         -1.1167771039       -3.4973558996       -0.7408659718
 C         -0.3650346011       -4.7808432163       -0.5601862840
 C         -1.7486821998       -4.6380540208       -0.0031367072
 H         -2.5566232376       -5.1749268987       -0.4771397497
 H         -1.8647468708       -4.5321728698        1.0660099652
 H         -0.2245961784       -5.4214797167       -1.4176734840
 H          0.4612989660       -4.7834471846        0.1342262159
 H         -1.5050317337       -3.2616277471       -1.7249488297
 O         -2.1854414381       -0.8404362795       -1.9845016799
