  62
        -98.93991198
 C         -1.7867099970       -1.2393255381       -0.2112442067
 C         -1.0515703214       -1.9652626546       -1.1821356464
 C          0.0561692709       -2.7834262772       -0.6761822756
 C          0.2856923426       -2.8495150059        0.6476842413
 C          1.3412595200       -3.6806468832        1.3258241362
 C          2.7288495264       -3.0272501088        1.3811817213
 C          3.4727131702       -2.9679828569        0.0468581400
 H          4.5062306695       -2.6932406813        0.2657150732
 H          3.4878044362       -3.9585894917       -0.4088300305
 C          2.8949347943       -1.9509075889       -0.9464565061
 H          2.2531600326       -1.2426558058       -0.4179355142
 H          3.7024892998       -1.3618844169       -1.3884729746
 C          2.1006748581       -2.5572316793       -2.1035643945
 H          2.7696862146       -3.1309909961       -2.7496591951
 H          1.6909694676       -1.7297035625       -2.6902184061
 C          0.9406428885       -3.4656295995       -1.6743876383
 H          0.3365453561       -3.6886078100       -2.5576234606
 H          1.3266867750       -4.4011045904       -1.2686126252
 H          3.3320263334       -3.6071178684        2.0832823993
 H          2.6281811711       -2.0155573529        1.7800458052
 H          1.4151097826       -4.6483547444        0.8284962286
 H          0.9964527170       -3.8418130413        2.3494517104
 O         -0.4676824928       -2.1709420798        1.5511135945
 C         -1.4876008493       -1.3122759147        1.1501145933
 O         -2.0243201484       -0.7009765060        2.0891530649
 O         -1.3172413341       -1.9353619623       -2.4142866486
 C         -2.8719960170       -0.2861282922       -0.7018745565
 C         -2.4718558416        1.0984102181       -0.2527375952
 C         -3.0181545782        1.8445587303        0.7836761408
 C         -2.4686197744        3.0666691006        1.1362197107
 C         -1.3463788946        3.5597189858        0.4985315803
 C         -0.7790633383        2.8189091748       -0.5322214755
 C         -1.3618263086        1.6224096872       -0.9141003456
 H         -0.9098774575        1.0592810411       -1.7187080292
 N          0.3830148026        3.2633139711       -1.1932455740
 S          1.6980421363        2.2349012622       -1.3179882188
 O          2.7677281199        3.0730661605       -1.8141341745
 O          1.3577813729        1.0914172622       -2.1219108541
 C          2.0631870738        1.7427743463        0.3571589198
 C          1.2583595417        0.8046416189        0.9720644031
 C          1.5025880956        0.4723146328        2.2954226680
 C          2.5526085447        1.0707501167        2.9749411055
 C          3.3589607292        2.0044026086        2.3412892761
 C          3.1084741850        2.3519649358        1.0236106324
 H          3.7061781591        3.0746711086        0.4920983527
 H          4.1767308528        2.4650419876        2.8716644950
 H          2.7404165221        0.8045417970        4.0031734187
 H          0.8601593644       -0.2466619794        2.7809758141
 H          0.4516902283        0.3462842912        0.4200144225
 H          0.6952906167        4.1781035113       -0.8986748887
 H         -0.9077763506        4.4999967138        0.7963033070
 H         -2.9124189998        3.6313437159        1.9420358766
 H         -3.8553332912        1.4766004167        1.3476845210
 H         -2.7589461737       -0.2991233823       -1.7987240026
 C         -4.2598546161       -0.8482817412       -0.4402990972
 C         -4.9698785098       -0.8672155967        0.8780423003
 C         -5.4908802240       -0.0161663129       -0.2419501712
 H         -6.3975019117       -0.3314374096       -0.7370408463
 H         -5.3782388462        1.0541708888       -0.1820285811
 H         -5.5180456643       -1.7637594653        1.1313648419
 H         -4.4841852447       -0.4153776618        1.7267159381
 H         -4.3916962522       -1.7448680580       -1.0428039197
