  62
        -98.94686326
 C          1.2460657062        1.2236790983        0.0872792309
 C          2.0204554535        0.7213044740        1.1586822032
 C          2.6853097326       -0.5668939047        0.9212237940
 C          2.4958865094       -1.1970692545       -0.2528695172
 C          3.1594652384       -2.4839348867       -0.6478552014
 C          4.4855364983       -2.2231987423       -1.3763519502
 C          5.4071568503       -1.2422698868       -0.6518197624
 H          6.3234884998       -1.1609382135       -1.2404979780
 H          4.9418870496       -0.2539604113       -0.6440591475
 C          5.7590396013       -1.6463764172        0.7866853044
 H          5.5540229758       -2.7072153142        0.9352603368
 H          6.8302796877       -1.4995815113        0.9401488879
 C          5.0401083979       -0.8355702877        1.8665451334
 H          5.1686701560        0.2318429792        1.6695024391
 H          5.5167947609       -1.0497535420        2.8269738796
 C          3.5410281366       -1.1190501200        2.0265551713
 H          3.3804023887       -2.1930624950        2.1411314428
 H          3.2060746218       -0.6228351078        2.9424721606
 H          4.9998964040       -3.1767351365       -1.5090940942
 H          4.2634688920       -1.8157875505       -2.3651620522
 H          3.3353158501       -3.0853417075        0.2418970363
 H          2.4911403557       -3.0263077489       -1.3175667439
 O          1.7104396313       -0.7030609168       -1.2417896484
 C          1.0637059426        0.5152555113       -1.1015663580
 O          0.3729154912        0.8473870166       -2.0804641189
 H         -0.8715279621        0.7550958800        1.6061879191
 C         -1.5147998377        1.3120032690        0.9355156503
 C         -0.9620449862        2.3173600871        0.1503583590
 C         -1.7994751561        3.0268347035       -0.6988929841
 C         -3.1481434835        2.7194954772       -0.7721796531
 C         -3.6909275978        1.7095161553        0.0003899276
 C         -2.8629298114        1.0036791701        0.8641532694
 N         -3.4032259420       -0.0357235452        1.6547110790
 S         -3.9945151565       -1.3584496368        0.8122942889
 O         -5.1719905521       -0.9574606718        0.0861795025
 O         -4.1759397581       -2.3949428781        1.8034591514
 C         -2.6975121726       -1.8145581019       -0.3226980113
 C         -2.6538878581       -1.2304909878       -1.5724925959
 C         -1.6192653988       -1.5640426655       -2.4311020744
 C         -0.6517482899       -2.4699857932       -2.0267482261
 C         -0.7045854928       -3.0415285545       -0.7648631518
 C         -1.7337896214       -2.7080542104        0.0999777650
 H         -1.8153204917       -3.1368918626        1.0862987282
 H          0.0535537458       -3.7411349237       -0.4497964734
 H          0.1528486842       -2.7211607883       -2.6996880104
 H         -1.5609988729       -1.1057442026       -3.4046040660
 H         -3.4261976181       -0.5335492149       -1.8541211843
 H         -2.7603842882       -0.3612145525        2.3636437472
 H         -4.7339634678        1.4442479587       -0.0606400878
 H         -3.7854225209        3.2737696401       -1.4443914023
 H         -1.3961500262        3.8138740746       -1.3142332553
 C          0.5246876567        2.5493955539        0.2553026392
 H          0.7499874101        2.8798309765        1.2801446631
 C          1.0549819071        3.5797797319       -0.7180205367
 C          0.9706040696        5.0394565920       -0.3888841891
 C          2.2959278698        4.3407766028       -0.3633460660
 H          3.0099825920        4.5565041541       -1.1439788472
 H          2.7483112882        4.1345254960        0.5958698857
 H          0.5246976543        5.3143527913        0.5550348967
 H          0.7767074392        5.7387104757       -1.1880995825
 H          0.9322215312        3.2786666442       -1.7520491801
 O          2.1421892828        1.3170888454        2.2644022866
