  62
        -98.93954769
 C         -2.4163041201       -0.4225379106       -0.2663404003
 C         -3.6129552500       -0.9806769912        0.2465088593
 C         -4.6319463801       -0.0224701717        0.6932263902
 C         -4.3677476102        1.2953725884        0.6271267614
 C         -5.3296793803        2.3822250480        1.0087857324
 C         -6.1689607304        2.8309186390       -0.1957191472
 C         -6.8034888203        1.6760829796       -0.9706769282
 H         -7.3960620904        2.1125145003       -1.7776084178
 H         -6.0133493203        1.0829481001       -1.4366588888
 C         -7.6931972502        0.7559957588       -0.1232070490
 H         -7.9712880502        1.2596503479        0.8032671415
 H         -8.6153508602        0.5567676292       -0.6731620591
 C         -7.0694843300       -0.6015533815        0.2060423298
 H         -7.8533023100       -1.2463774319        0.6123394492
 H         -6.7044621300       -1.0694769006       -0.7117420207
 C         -5.9227263600       -0.5797111923        1.2245477897
 H         -6.2359758400       -0.0393925231        2.1202620302
 H         -5.7085202599       -1.6150069625        1.5057329488
 H         -5.5236808405        3.3879800296       -0.8788120967
 H         -6.9498143604        3.5054080986        0.1602133134
 H         -5.9796299502        2.0216511972        1.8037021521
 H         -4.7561982504        3.2337619277        1.3787401631
 O         -3.1961066203        1.7931560589        0.1575045317
 C         -2.1922830102        0.9538256394       -0.3040485891
 O         -1.1792081603        1.5503005399       -0.7148241686
 H          1.1575921599       -0.2225824195       -1.1431424003
 C          1.0387066899       -0.6248462604       -0.1491576306
 C         -0.1496033500       -1.2413825608        0.2063655089
 C         -0.2796444399       -1.7399826820        1.5002367685
 C          0.7515429202       -1.6176777627        2.4110785185
 C          1.9325095201       -0.9877478723        2.0568960290
 C          2.0725721600       -0.4872603711        0.7700475595
 N          3.2579904599        0.1855784193        0.4028952900
 S          4.7200759400       -0.6359213707        0.5984102492
 O          4.7419149101       -1.8287555200       -0.2219670519
 O          4.9548522801       -0.8367797019        2.0053996690
 C          5.8621193298        0.5736247200       -0.0383058898
 C          6.1030673398        1.7037363993        0.7195814812
 C          6.9744670896        2.6636197398        0.2309239821
 C          7.5868711396        2.4783206810       -0.9999982181
 C          7.3352038997        1.3387063516       -1.7484570891
 C          6.4629998198        0.3751424211       -1.2660613200
 H          6.2413326799       -0.5286086284       -1.8107808508
 H          7.8138521297        1.1971754125       -2.7041363193
 H          8.2656822495        3.2266642914       -1.3775734875
 H          7.1735353796        3.5511047493        0.8097419228
 H          5.6100903198        1.8023535884        1.6724829514
 H          3.1993468398        0.5288084402       -0.5474899297
 H          2.7454828301       -0.8899865328        2.7572328691
 H          0.6364687102       -2.0117155436        3.4098588582
 H         -1.2061791298       -2.2219739523        1.7813348881
 C         -1.3218562900       -1.3667407301       -0.7351432512
 H         -1.7406551399       -2.3763596902       -0.6200201321
 C         -0.9748750801       -1.1464554288       -2.1917687010
 C         -0.2102405300       -2.1997782580       -2.9350897120
 C         -1.6594696901       -1.9702816179       -3.2391088617
 H         -1.9220224502       -1.4993809071       -4.1745660013
 H         -2.3751880600       -2.7072871082       -2.9055177623
 H          0.5231779799       -1.8895828373       -3.6639101517
 H          0.0616171601       -3.0930277885       -2.3928788228
 H         -0.7758429902       -0.1081464985       -2.4296667901
 O         -3.8173747699       -2.2218298613        0.3279059182
