  62
        -98.94699383
 C          1.2604867127        0.7643901347        0.6572170989
 C          2.1174138207        0.7475085594       -0.4689817161
 C          2.8436196998       -0.5088067474       -0.7037060662
 C          2.6062670117       -1.5676325903        0.0910250069
 C          3.3003408274       -2.8940560093       -0.0159431371
 C          4.5584539379       -2.9395029015        0.8627767960
 C          5.4797283964       -1.7327165051        0.6847285375
 H          4.9660443113       -0.8374100138        1.0419390365
 H          6.3461860688       -1.8872980647        1.3312303745
 C          5.9522707621       -1.5026796453       -0.7574527674
 H          7.0232428903       -1.2898251554       -0.7455430467
 H          5.8086795219       -2.4110215377       -1.3436862440
 C          5.2730253215       -0.3302008141       -1.4675360329
 H          5.8269065838       -0.1223116183       -2.3868503133
 H          5.3329583855        0.5624284993       -0.8399577930
 C          3.8051465410       -0.5457217324       -1.8581646596
 H          3.7035215239       -1.4805069176       -2.4139737001
 H          3.5101868807        0.2768006798       -2.5167798913
 H          5.1059082427       -3.8554054149        0.6328927802
 H          4.2478397102       -2.9823340456        1.9092071365
 H          2.6066082996       -3.6705962061        0.3115632541
 H          3.5625108607       -3.0757007060       -1.0566261399
 O          1.7270622479       -1.5342209979        1.1238657291
 C          1.0334774399       -0.3746267576        1.4287753804
 O          0.2540350581       -0.4848447943        2.3978605242
 O          2.2753676731        1.7298166830       -1.2410502053
 C          0.4523933570        2.0106461156        0.9845883929
 C         -0.5050885895        2.2551172420       -0.1572793177
 C         -0.5485891332        3.4200824374       -0.9091136429
 C         -1.4081828623        3.5145706741       -1.9911719902
 C         -2.2270226141        2.4589581353       -2.3454959708
 C         -2.2047648831        1.2933908540       -1.5841265205
 C         -1.3651132159        1.2141436585       -0.4871311040
 H         -1.3352394166        0.3088781010        0.0984812125
 N         -3.0407204172        0.2181929094       -1.9019382918
 S         -2.8038298829       -1.3388287281       -1.3513933451
 O         -1.4059701372       -1.6937923500       -1.2673066077
 O         -3.6083014423       -2.1438907051       -2.2475277158
 C         -3.5782185320       -1.3266906231        0.2517174869
 C         -4.9397428887       -1.0907671891        0.2900764239
 C         -5.5833958554       -1.0632175091        1.5155567636
 C         -4.8581619605       -1.2697707314        2.6800918683
 C         -3.4944415237       -1.5087827096        2.6251706365
 C         -2.8449844492       -1.5407688476        1.4001876214
 H         -1.7812378967       -1.7143916022        1.3367228484
 H         -2.9202080567       -1.6635039276        3.5247399292
 H         -5.3569653729       -1.2452142112        3.6361422515
 H         -6.6446476368       -0.8793234569        1.5613083521
 H         -5.4657363813       -0.9437179129       -0.6384702520
 H         -3.5044910342        0.2640861213       -2.7956657954
 H         -2.8758215774        2.5283728553       -3.2050642656
 H         -1.4275563321        4.4202381885       -2.5783803300
 H          0.1014825356        4.2436557540       -0.6646410507
 H         -0.1379636803        1.7641952870        1.8788345081
 C          1.3551179467        3.1833064092        1.2983251230
 C          0.8433075229        4.3149718115        2.1364861912
 C          1.8531685536        3.3620184800        2.6998994739
 H          2.8654223494        3.7077288259        2.8467434391
 H          1.5259969153        2.6450057912        3.4390031596
 H          1.1633776068        5.3182803945        1.8998251839
 H         -0.1717791518        4.2486166824        2.4974603552
 H          2.0418667020        3.4111027493        0.4918888853
