  62
        -98.94393764
 C         -1.8245599065       -1.1328270650        0.2462279008
 C         -2.1506919443       -0.1244396574       -0.6920368674
 C         -3.5779919985        0.0003828344       -1.0242761507
 C         -4.4649226874       -0.8351315455       -0.4533892602
 C         -5.9505398445       -0.7811304724       -0.6594620649
 C         -6.6240525839        0.1142184940        0.3900746099
 C         -5.9602915846        1.4816192575        0.5531908460
 H         -6.5366013684        2.0365870945        1.2966088053
 H         -4.9561089730        1.3453205294        0.9612180198
 C         -5.8710811280        2.3022481604       -0.7409973394
 H         -6.1704564229        3.3301397629       -0.5256455321
 H         -6.5714555201        1.9088099413       -1.4786250913
 C         -4.4716823927        2.3663594304       -1.3561446426
 H         -4.4752424220        3.1381712898       -2.1306421037
 H         -3.7483716073        2.6717347527       -0.5953704410
 C         -3.9676019238        1.0707396777       -2.0044218477
 H         -4.7130609334        0.6971700090       -2.7095769819
 H         -3.0570531328        1.3115789736       -2.5613977040
 H         -6.5923988093       -0.3986031184        1.3541064025
 H         -7.6705346708        0.2471654719        0.1099917356
 H         -6.1599409942       -0.4074849456       -1.6598012413
 H         -6.3472333615       -1.7936555473       -0.5686117530
 O         -4.1092753533       -1.8049705226        0.4274369458
 C         -2.7876209239       -1.9710477756        0.8076753289
 O         -2.6009157935       -2.8813120108        1.6401276480
 H          2.0352155094       -0.1267233790        0.0918015032
 C          1.4482349051        0.4170620145        0.8125423416
 C          0.2013299065       -0.0512907909        1.1968229980
 C         -0.5262631475        0.6794833154        2.1330056087
 C         -0.0307731669        1.8614067924        2.6468052184
 C          1.2036805693        2.3382641776        2.2422025063
 C          1.9466561195        1.6092249534        1.3218603714
 N          3.2233382232        2.0425055658        0.9440599392
 S          3.8721057698        1.7230566961       -0.5610499991
 O          4.9894762619        2.6396926505       -0.6598327975
 O          2.8934078200        1.8085752342       -1.6183980976
 C          4.5076320036        0.0641801407       -0.4358200342
 C          5.0915245945       -0.3488301002        0.7454010139
 C          5.6242108242       -1.6260586898        0.8171951198
 C          5.5745733594       -2.4611759308       -0.2885058387
 C          4.9902638806       -2.0294977937       -1.4692737152
 C          4.4502550219       -0.7548635464       -1.5458657675
 H          3.9738102656       -0.3833126634       -2.4395372867
 H          4.9521366941       -2.6792958686       -2.3294460535
 H          5.9906039035       -3.4545319344       -0.2305466782
 H          6.0772249998       -1.9662271335        1.7343835408
 H          5.1140100234        0.3253906248        1.5849608815
 H          3.4913218840        2.9525583689        1.2878661816
 H          1.5888774325        3.2666357595        2.6355709754
 H         -0.6114973791        2.4212413124        3.3646702985
 H         -1.4938939000        0.3095317513        2.4450587735
 C         -0.3802564096       -1.3383256563        0.6655955146
 H         -0.4063308774       -2.0661895380        1.4902602792
 C          0.4153134916       -1.9330047219       -0.4780040866
 C          1.5690444656       -2.8465046372       -0.1953526421
 C          0.2933635627       -3.4006999302       -0.7529101314
 H          0.2777498917       -3.7328694218       -1.7800432435
 H         -0.3490137606       -3.9727715822       -0.0991360462
 H          2.4342361493       -2.7994281671       -0.8390763554
 H          1.8003066380       -3.0514967835        0.8388467854
 H          0.4826502001       -1.2659175899       -1.3308057512
 O         -1.2980769909        0.6342597942       -1.2237312167
