  62
        -98.93204576
 C         -2.7876302098       -0.3585426386       -0.0210118288
 C         -2.2336636198        0.4870801614       -1.0125375289
 C         -2.1093783490        1.9229319712       -0.6691838886
 C         -2.5931891282        2.3619969212        0.5056163918
 C         -2.5701856073        3.7545629310        1.0806134421
 C         -1.1918668768        4.1540649802        1.6236676916
 C         -0.0257788674        3.8709956099        0.6810059910
 H          0.8925505030        4.1667137893        1.1958124606
 H          0.0467788120        2.7978796699        0.4934025107
 C         -0.0712398576        4.6181191002       -0.6503120088
 H          0.8830972721        4.4330928499       -1.1499598193
 H         -0.1471155270        5.6912270502       -0.4597232085
 C         -1.1886265783        4.2094111910       -1.6151883284
 H         -2.1316164279        4.6882731514       -1.3631117879
 H         -0.9107122985        4.5755116011       -2.6079151385
 C         -1.3903714191        2.7030719511       -1.7423643087
 H         -1.9361661296        2.4945221316       -2.6704555785
 H         -0.4150190593        2.2150303607       -1.8652912093
 H         -1.2161407962        5.2188399802        1.8648283918
 H         -1.0172086067        3.6004036299        2.5495702114
 H         -3.2841081969        3.7580704412        1.9076710424
 H         -2.9135916972        4.4734684714        0.3427690624
 O         -3.1993020582        1.5206552512        1.3950935518
 C         -3.2600890690        0.1593442813        1.1859246615
 O         -3.7744714689       -0.4824045387        2.1262842116
 O         -1.8491510205        0.0953630414       -2.1448699891
 C         -2.8151229206       -1.8754558186       -0.1172496192
 C         -1.5758390406       -2.4387892093        0.5363288501
 C         -1.6295969708       -3.5742845295        1.3356059399
 C         -0.4797352907       -4.0695363202        1.9263238692
 C          0.7364933695       -3.4368463608        1.7461389088
 C          0.7972712597       -2.2858907606        0.9655926891
 C         -0.3523644903       -1.8102500299        0.3550883797
 H         -0.2904958602       -0.9320208198       -0.2671586901
 N          2.0012523500       -1.5782064712        0.8328216387
 S          2.2145416900       -0.4470578710       -0.3974929111
 O          1.3966432107        0.7047866694       -0.1218224604
 O          2.0570789891       -1.0786312406       -1.6888355512
 C          3.9292073603       -0.0397068719       -0.1286374917
 C          4.2413941912        0.9490962077        0.7846197384
 C          5.5738564215        1.2508707070        1.0172404878
 C          6.5668988208        0.5613900167        0.3374339972
 C          6.2387347499       -0.4268688429       -0.5785287629
 C          4.9078735897       -0.7332170822       -0.8153682924
 H          4.6052734490       -1.4840956019       -1.5275569124
 H          7.0127495694       -0.9579959132       -1.1086057534
 H          7.6030725810        0.7986014261        0.5197995968
 H          5.8320308722        2.0216437167        1.7253672979
 H          3.4341739517        1.4625529480        1.2808996888
 H          2.8260412698       -2.1391322216        0.9911727782
 H          1.6297311195       -3.8170227713        2.2171334083
 H         -0.5322729009       -4.9558965104        2.5401158390
 H         -2.5802243309       -4.0583465291        1.5049272802
 H         -3.6797840905       -2.1976398883        0.4862490711
 C         -3.0229933615       -2.4054177081       -1.5278114492
 C         -1.9105538821       -2.9480958585       -2.3680989199
 C         -2.9411397823       -3.8776949081       -1.8058078296
 H         -3.6635737728       -4.3139167076       -2.4788464794
 H         -2.6399593123       -4.5251681084       -0.9966553499
 H         -1.9250124125       -2.7208379982       -3.4230592798
 H         -0.9155063619       -2.9575928191       -1.9490017703
 H         -3.7938704114       -1.8522144976       -2.0542392487
