  62
        -98.93784834
 C          1.4044399740        1.0435039776       -0.5180943390
 C          2.5146177228        1.1795425097        0.3499493947
 C          3.4633546135        0.0537011866        0.4298526418
 C          3.2156710580       -1.0475887651       -0.3029076802
 C          4.0458788006       -2.2988301925       -0.4124573474
 C          5.2936429603       -2.1088787860       -1.2912446263
 C          6.0495864688       -0.8021511430       -1.0634054741
 H          6.8304232795       -0.7334171935       -1.8253917209
 H          5.3690294151        0.0368350809       -1.2194634514
 C          6.7176025790       -0.6660471273        0.3025968661
 H          7.2777251131        0.2724898580        0.2984638964
 H          7.4341232339       -1.4801551069        0.4332284799
 C          5.7763809096       -0.6518667153        1.5084607334
 H          6.3604995019       -0.3242744492        2.3736014917
 H          5.4199970005       -1.6524651432        1.7385293105
 C          4.5995353302        0.3118988660        1.3900610368
 H          4.1324593566        0.4136586597        2.3775378007
 H          4.9773226167        1.3116099182        1.1466973344
 H          4.9748033454       -2.1301755634       -2.3361763859
 H          5.9637904909       -2.9541376653       -1.1259695242
 H          3.4077795223       -3.0585484897       -0.8698094520
 H          4.3163047795       -2.6516492015        0.5786286152
 O          2.1317671786       -1.1422184089       -1.1207436224
 C          1.1933105044       -0.1294620978       -1.2436482806
 O          0.2635110196       -0.4047467967       -2.0238663466
 O          2.7184308218        2.2211721659        1.0330788462
 C          0.4381198414        2.2127011051       -0.5640982099
 C         -0.5978207011        2.1010717217        0.5280856631
 C         -1.0142124093        3.2243752806        1.2337197125
 C         -1.9669851534        3.1125328689        2.2307960514
 C         -2.5138890982        1.8828631059        2.5481523219
 C         -2.0904147545        0.7485134182        1.8614885684
 C         -1.1481746689        0.8689812845        0.8502207714
 H         -0.8180145686       -0.0152482323        0.3309059849
 N         -2.5867074426       -0.5095023063        2.2112451346
 S         -2.5620103533       -1.8577217522        1.2322972773
 O         -3.3100871253       -2.8358209374        1.9947884792
 O         -1.2074273597       -2.2183554142        0.8987558577
 C         -3.5105821237       -1.4161807607       -0.2114425499
 C         -2.9014921386       -1.1617768553       -1.4223014229
 C         -3.6979712345       -0.8208749263       -2.5065285792
 C         -5.0727877608       -0.7325091035       -2.3629828447
 C         -5.6685776294       -0.9897824811       -1.1367667273
 C         -4.8822377424       -1.3363393563       -0.0517765458
 H         -5.3059657303       -1.5671599113        0.9120325048
 H         -6.7388857810       -0.9234801584       -1.0260381751
 H         -5.6825034344       -0.4644923601       -3.2113466294
 H         -3.2278320794       -0.6247215567       -3.4567464411
 H         -1.8280258397       -1.2204087568       -1.5176945140
 H         -3.3449118293       -0.5184472669        2.8752145137
 H         -3.2474235973        1.7928643443        3.3343309394
 H         -2.2830761472        3.9911695275        2.7720825974
 H         -0.5705845531        4.1839357926        1.0129007861
 H          1.0537373408        3.0981207447       -0.3353100431
 C         -0.1837938350        2.4312370596       -1.9360621583
 C         -1.6120871772        2.1119553247       -2.2467809330
 C         -1.1700039751        3.5398122133       -2.1584820498
 H         -1.0969938955        4.1162550681       -3.0681416263
 H         -1.4886834376        4.1076798316       -1.2983109109
 H         -1.8294835201        1.6913697859       -3.2158237990
 H         -2.2269264357        1.7133225061       -1.4544427537
 H          0.5309901081        2.2508488898       -2.7324049086
