  62
        -98.93558770
 C         -1.6941402808       -0.9963310208        0.2826433228
 C         -1.9629935218        0.3884216374        0.1383341142
 C         -3.2844772068        0.7761300990       -0.3900155579
 C         -4.1540036754       -0.1957055017       -0.7222968738
 C         -5.5608704896       -0.0553793035       -1.2399402021
 C         -6.5610155792        0.3321603329       -0.1387874085
 C         -6.0810240396        1.4292614669        0.8077097865
 H         -6.8276765880        1.5342118302        1.5993997527
 H         -5.1502056503        1.1117548914        1.2810439572
 C         -5.8834026203        2.8011363868        0.1672913763
 H         -6.8270796850        3.1291519742       -0.2743935642
 H         -5.6323733227        3.4996579607        0.9696103408
 C         -4.7899623940        2.8914804473       -0.8994493974
 H         -4.5998310567        3.9535179938       -1.0799667349
 H         -5.1281447693        2.4744741200       -1.8442332368
 C         -3.4545559139        2.2723049822       -0.4985965676
 H         -3.1444505625        2.6824007348        0.4691550324
 H         -2.6884946394        2.6039185293       -1.2097211616
 H         -6.7645810909       -0.5585283223        0.4607465303
 H         -7.4945863013        0.6394601238       -0.6131646302
 H         -5.5887388722        0.6586727000       -2.0576359815
 H         -5.8458989074       -1.0308112275       -1.6403741712
 O         -3.8498236507       -1.5155881467       -0.5798456792
 C         -2.6351875740       -1.9566484263       -0.0865193962
 O         -2.5427265671       -3.1996205705       -0.0372689952
 O         -1.1298599378        1.2808662775        0.4526858659
 C         -0.3340028030       -1.3657709305        0.8459325517
 C          0.6526394047       -1.7208817668       -0.2407592515
 C          0.4481283877       -2.8059748019       -1.0865137027
 C          1.3865385721       -3.1237120794       -2.0509691260
 C          2.5502006579       -2.3848782089       -2.1760972379
 C          2.7633582155       -1.2982758153       -1.3363754638
 C          1.8076084756       -0.9666068283       -0.3862244415
 H          1.9701157205       -0.1123424853        0.2528996575
 N          3.9240775132       -0.5217442116       -1.4462243687
 S          4.6419877030        0.1329751885       -0.0843512255
 O          6.0102644234        0.3817348837       -0.4855357978
 O          4.4633322054       -0.7128475520        1.0723376663
 C          3.8165348799        1.6919382966        0.1484268191
 C          3.7216124913        2.5500734016       -0.9289511108
 C          3.0989914985        3.7751816180       -0.7548813312
 C          2.5875650510        4.1209759680        0.4867743845
 C          2.6946995883        3.2502103379        1.5595851763
 C          3.3156915129        2.0229327285        1.3913860937
 H          3.4139143238        1.3131172359        2.1980980302
 H          2.2928071786        3.5190748297        2.5233514459
 H          2.0998526978        5.0737168426        0.6199396954
 H          3.0114813251        4.4556824436       -1.5866255624
 H          4.1323455995        2.2473144461       -1.8776968296
 H          4.6042523238       -0.8576512777       -2.1120392659
 H          3.2881223628       -2.6453177357       -2.9197734848
 H          1.2166311789       -3.9657073227       -2.7051647914
 H         -0.4528527894       -3.3908127277       -0.9830750102
 H          0.0319088618       -0.4505667654        1.3313533495
 C         -0.3767116608       -2.4712361063        1.8841371333
 C          0.8182208996       -2.6712071462        2.7662929065
 C         -0.4510777886       -2.1146489681        3.3368203856
 H         -1.0400786276       -2.7399479229        3.9909935461
 H         -0.4777388160       -1.0658439010        3.5944138825
 H          1.1002626958       -3.6796368532        3.0280735709
 H          1.6590871751       -2.0062163868        2.6309417137
 H         -0.9138848361       -3.3513522060        1.5558513771
