  62
        -98.94109412
 C         -1.7217348793       -0.1176387006        0.9344924999
 C         -2.9232604394       -0.8538086301        0.7901455191
 C         -4.1325229593       -0.0599809796        0.5294924304
 C         -4.0569748691        1.2790648405        0.4367728723
 C         -5.2049645090        2.2193497811        0.1881815937
 C         -5.5717206392        2.3802834232       -1.2935540260
 C         -6.2736597995        1.1773368642       -1.9250605375
 H         -7.1253652095        0.8895871035       -1.3078291478
 H         -6.6669142096        1.5057515156       -2.8892543370
 C         -5.3650864598       -0.0391369857       -2.1516379994
 H         -5.5305117700       -0.4353368842       -3.1561022999
 H         -4.3189757297        0.2715981141       -2.0992844391
 C         -5.5888407798       -1.1884403770       -1.1689483309
 H         -6.5921035999       -1.5982239266       -1.3058766713
 H         -4.8686030100       -1.9784887868       -1.3959878121
 C         -5.4168607495       -0.8002654590        0.3052257796
 H         -6.2642206193       -0.2014451794        0.6381228906
 H         -5.3807022196       -1.7171037199        0.8986733383
 H         -4.6630648693        2.6079474338       -1.8556091358
 H         -6.2364240591        3.2436937934       -1.3722993547
 H         -6.0799805690        1.8851922305        0.7464027434
 H         -4.8973802288        3.1935107305        0.5742368050
 O         -2.8850675090        1.9520407101        0.5821186330
 C         -1.7010129191        1.2769115596        0.8188921519
 O         -0.7040042589        2.0203535693        0.9167576327
 H          2.0377395106       -0.0912083902        0.2207694793
 C          1.5508760504       -0.8388953093       -0.3864679916
 C          0.2825636204       -1.2823687295       -0.0421739820
 C         -0.3385497299       -2.2303350983       -0.8480024732
 C          0.3027746398       -2.7174885569       -1.9719562740
 C          1.5791168598       -2.2926732166       -2.2974915836
 C          2.2099685101       -1.3490019679       -1.4959096024
 N          3.5006728101       -0.8934525677       -1.7970907220
 S          4.5892203004       -0.5768410596       -0.5659464918
 O          5.8875639303       -0.6901922889       -1.1953507221
 O          4.3607174204       -1.4262994811        0.5789699971
 C          4.3016232908        1.1277611999       -0.1441818594
 C          4.3310512407        2.0662425413       -1.1564176581
 C          4.1286014210        3.3992192509       -0.8384783062
 C          3.9033699313        3.7696276991        0.4787410144
 C          3.8809934413        2.8160353877        1.4842587031
 C          4.0829393710        1.4810689481        1.1721647312
 H          4.0685230110        0.7068374371        1.9236629601
 H          3.7027565815        3.1054509163        2.5075953635
 H          3.7426178615        4.8074336988        0.7245289558
 H          4.1446044210        4.1452342020       -1.6167013151
 H          4.5119073805        1.7407112427       -2.1672434085
 H          3.9404613899       -1.3449053166       -2.5856261827
 H          2.0847248496       -2.6880022455       -3.1655855143
 H         -0.1903228904       -3.4489412259       -2.5945426049
 H         -1.3240109800       -2.5810002085       -0.5832164436
 C         -0.3708796793       -0.7551456612        1.2130790888
 H          0.2648070209        0.0552160982        1.5955420398
 C         -0.4200343994       -1.8540872426        2.2594595173
 C          0.8652389907       -2.3172113937        2.8746797464
 C         -0.1136752891       -1.5250528446        3.6876796677
 H         -0.6680544390       -2.0313284056        4.4637150071
 H          0.1306272612       -0.4993843850        3.9237984291
 H          0.9801796205       -3.3684043640        3.0915477850
 H          1.7796207307       -1.8396589734        2.5528483270
 H         -1.1825425195       -2.5968562522        2.0666661064
 O         -3.0139734196       -2.1078299702        0.8705654574
