  62
        -98.94561262
 C          1.5061001791        1.5264774909       -0.0953948243
 C          2.6992339770        0.9739586808        0.4322974162
 C          3.1670177386       -0.2707498125       -0.1864266350
 C          2.4530621064       -0.8292556414       -1.1794410406
 C          2.7802688698       -2.1101487769       -1.8973812536
 C          2.3034448952       -3.3656816165       -1.1536691220
 C          3.1309876634       -3.7442106015        0.0751940444
 H          2.8457259150       -4.7614252551        0.3513341856
 H          4.1897376590       -3.7608557126       -0.1874284720
 C          2.9107761332       -2.8299295488        1.2886964975
 H          1.9724337307       -2.2816737206        1.1687942291
 H          2.7977177457       -3.4423341668        2.1870584983
 C          4.0476441659       -1.8432827892        1.5589544072
 H          3.7574612818       -1.2146479436        2.4049232918
 H          4.9483529640       -2.3937338477        1.8420010161
 C          4.3913159591       -0.9229178142        0.3808463096
 H          5.0497815283       -0.1315864340        0.7485696930
 H          4.9159526087       -1.4835651251       -0.3928276151
 H          1.2628896009       -3.2239731142       -0.8489311967
 H          2.3356250367       -4.1986812604       -1.8601816952
 H          2.2739913668       -2.0661662659       -2.8642268252
 H          3.8550026652       -2.1740339513       -2.0703124507
 O          1.3172837121       -0.2663555275       -1.6655655588
 C          0.7927991490        0.8981513931       -1.1171142220
 O         -0.2836283444        1.2528847845       -1.6317286488
 O          3.3389967188        1.4941270448        1.3864848447
 C          0.9191440008        2.7440717263        0.5966019902
 C         -0.5405798628        2.4889850786        0.8843618130
 C         -1.5599323565        3.3935777875        0.6199289005
 C         -2.8777645378        3.0623306159        0.8872618806
 C         -3.2091777676        1.8201201481        1.3951703029
 C         -2.1946345604        0.9093766579        1.6663697843
 C         -0.8761562143        1.2605765668        1.4417163333
 H         -0.1007782806        0.5412921548        1.6630288522
 N         -2.4732239013       -0.3808640533        2.1645915563
 S         -1.9601069164       -1.6875367764        1.2522913517
 O         -2.5861018029       -2.8323196592        1.8833401482
 O         -0.5223683271       -1.7175265173        1.1778663564
 C         -2.6701575134       -1.4649422393       -0.3687585168
 C         -1.8530572242       -1.4348908379       -1.4775529396
 C         -2.4240142980       -1.2595062128       -2.7281710758
 C         -3.7966837630       -1.1174569101       -2.8464710216
 C         -4.6082216466       -1.1601339118       -1.7224327242
 C         -4.0423276077       -1.3368324242       -0.4713774688
 H         -4.6473928484       -1.3928469773        0.4192811888
 H         -5.6768864629       -1.0545069964       -1.8185464906
 H         -4.2364598466       -0.9748748299       -3.8210192550
 H         -1.7883504440       -1.2241427683       -3.5982031937
 H         -0.7881749352       -1.5358070620       -1.3481634390
 H         -3.4386721950       -0.5153205887        2.4314286252
 H         -4.2393270494        1.5540803536        1.5778140307
 H         -3.6597180012        3.7753660121        0.6750113176
 H         -1.3285314282        4.3519844528        0.1852039716
 H          1.4517931565        2.7900633710        1.5623429999
 C          1.1819852211        4.0681494392       -0.1049913362
 C          2.2959506465        4.2108821965       -1.0975432898
 C          0.8716704761        4.2723381006       -1.5566666309
 H          0.4762392479        5.2285330901       -1.8667176615
 H          0.4684865066        3.4319087992       -2.0989152380
 H          2.8769241891        5.1210454144       -1.0873234214
 H          2.8720213260        3.3278071270       -1.3339738055
 H          1.0198446008        4.9170083329        0.5521940175
