  62
        -98.93805296
 C         -2.4557617267       -1.1926603961       -0.0757700627
 C         -3.2205476396       -0.5073250835        0.8945035456
 C         -4.0634095361        0.5979630417        0.4055396995
 C         -4.0534989131        0.8937238603       -0.9061935424
 C         -4.7895878690        2.0075724108       -1.5983988211
 C         -3.8996259760        3.2565997176       -1.7165163892
 C         -3.9466013689        4.1980451104       -0.5134776347
 H         -3.1801320201        4.9612245827       -0.6671765183
 H         -4.9135360989        4.7048605023       -0.4918221299
 C         -3.7134613034        3.5352686586        0.8468679258
 H         -2.8904076076        2.8215721707        0.7728294945
 H         -3.4034097848        4.3115231054        1.5494459601
 C         -4.9638535776        2.8351807591        1.3999381546
 H         -5.1444394389        3.1732810509        2.4224775502
 H         -5.8310090284        3.1418165406        0.8154826838
 C         -4.8894760148        1.3016728762        1.4477966335
 H         -5.9056950348        0.8944202328        1.4205802782
 H         -4.4545056416        0.9887404813        2.4025155588
 H         -2.8724997470        2.9211727042       -1.8824876485
 H         -4.2046742118        3.8220192497       -2.5992508198
 H         -5.7192546527        2.2334945809       -1.0848428370
 H         -5.0200753337        1.6492288544       -2.6037197906
 O         -3.2897132322        0.2155221151       -1.8063491037
 C         -2.4724224054       -0.8344741810       -1.4237229577
 O         -1.8272478531       -1.3518943738       -2.3536749594
 O         -3.1923497042       -0.7979448807        2.1226402837
 C         -1.5682528333       -2.3431976208        0.3596778409
 C         -0.1237118802       -2.0574253460        0.0276359562
 C          0.7342581232       -3.0043074639       -0.5159215409
 C          2.0555497175       -2.6852152756       -0.7787682826
 C          2.5504643597       -1.4238052172       -0.5058169488
 C          1.7054003168       -0.4722278775        0.0505745010
 C          0.3848256880       -0.7970157338        0.3179502271
 H         -0.2706899193       -0.0538503304        0.7569647504
 N          2.1992345302        0.8163907577        0.3266211345
 S          3.5755170269        0.9320643619        1.2854877983
 O          3.6786118037       -0.1854900911        2.1952179544
 O          3.5081395546        2.2465398977        1.8860954317
 C          4.9198629171        0.8961244307        0.1192413124
 C          5.9090030379       -0.0603320898        0.2388115273
 C          6.9533029271       -0.0614283691       -0.6729107202
 C          6.9897009557        0.8890154783       -1.6816795535
 C          5.9892251711        1.8440118310       -1.7866264497
 C          4.9432585676        1.8515968881       -0.8777711269
 H          4.1489078244        2.5780105960       -0.9217780889
 H          6.0207648983        2.5812873285       -2.5726271478
 H          7.8024588635        0.8860124086       -2.3906613569
 H          7.7321470719       -0.8026308006       -0.5929507104
 H          5.8354413825       -0.7823093253        1.0363548830
 H          1.4912905998        1.4558880564        0.6580251551
 H          3.5761256550       -1.1692479474       -0.7171887014
 H          2.7083426290       -3.4302435943       -1.2071854611
 H          0.3677525250       -3.9929156719       -0.7379142248
 H         -1.6598204064       -2.3851688553        1.4560014119
 C         -2.0771928956       -3.6468132622       -0.2196010064
 C         -1.8770678034       -4.9345535188        0.5205504333
 C         -3.2418387335       -4.3217609491        0.4386797886
 H         -3.9854556532       -4.7935639889       -0.1858062038
 H         -3.6486735816       -3.8545810056        1.3238762048
 H         -1.6858462040       -5.8318943354       -0.0483690619
 H         -1.3593165899       -4.8924652217        1.4670063439
 H         -2.0355033888       -3.6634809564       -1.3028922170
