  62
        -98.94329168
 C          1.2052839656        0.7126440351        0.6097336816
 C          1.9115356757        0.5298876134       -0.6048105117
 C          2.8789580203       -0.5788298692       -0.6218762207
 C          2.9716373389       -1.3955634251        0.4421392668
 C          3.9448422407       -2.5302393478        0.5740333958
 C          5.2527318018       -2.0680648470        1.2319666540
 C          5.8439517995       -0.8031657560        0.6094066333
 H          5.1703003994        0.0355911629        0.7990200224
 H          6.7784755025       -0.5896506371        1.1325538850
 C          6.1128574054       -0.9041239287       -0.8985244227
 H          7.1004252347       -0.4873151221       -1.1067109514
 H          6.1326170373       -1.9514955939       -1.2018739087
 C          5.1146468199       -0.1429816474       -1.7730325806
 H          5.0230359041        0.8850478649       -1.4135479887
 H          5.5161664414       -0.0998814556       -2.7889070583
 C          3.7084889852       -0.7497134683       -1.8633033027
 H          3.7780964784       -1.8046655919       -2.1374749366
 H          3.1678949743       -0.2255805397       -2.6572423772
 H          5.0573825112       -1.8713884808        2.2887504392
 H          5.9774068213       -2.8816303551        1.1663285942
 H          3.4873943570       -3.3038723584        1.1935166793
 H          4.1468153658       -2.9441494908       -0.4121694463
 O          2.2036896710       -1.2507094918        1.5521338578
 C          1.3030153472       -0.2038850467        1.6592021909
 O          0.6467497758       -0.2019764483        2.7209613189
 O          1.7535022191        1.2466504517       -1.6265372960
 C          0.1805046655        1.8210983015        0.7767444587
 C         -0.7814044120        1.8103711525       -0.3870292395
 C         -1.1826446557        2.9414062212       -1.0849729924
 C         -2.1012012433        2.8340818017       -2.1156957663
 C         -2.6539600246        1.6131130602       -2.4563336577
 C         -2.2550883628        0.4743330880       -1.7648637625
 C         -1.3258443501        0.5840882437       -0.7453214603
 H         -0.9955688007       -0.3091711419       -0.2375688893
 N         -2.7816259133       -0.7885994425       -2.0729853807
 S         -2.9714051974       -1.9274802993       -0.8671611127
 O         -1.6996316275       -2.5075212891       -0.5113636525
 O         -3.9533681967       -2.8475279395       -1.4015262241
 C         -3.6741165480       -1.0345421293        0.5091341919
 C         -2.9525325655       -0.8381385600        1.6684172710
 C         -3.5224689156       -0.1019424760        2.6956919220
 C         -4.7976895800        0.4201885920        2.5487792018
 C         -5.5150279639        0.2056414576        1.3812827827
 C         -4.9491175354       -0.5255468658        0.3504946936
 H         -5.4791866102       -0.7223979946       -0.5670671208
 H         -6.5090417011        0.6080140223        1.2716046755
 H         -5.2339521087        0.9949060015        3.3503946256
 H         -2.9557684888        0.0613116904        3.5987914829
 H         -1.9588616064       -1.2496363056        1.7598156246
 H         -3.5446447670       -0.7916138274       -2.7329910593
 H         -3.3733486153        1.5351972902       -3.2567858600
 H         -2.3970728430        3.7187904877       -2.6587073056
 H         -0.7632237441        3.9029527989       -0.8391678987
 H         -0.3977811430        1.5295831628        1.6702087152
 C          0.7683784799        3.1926882861        1.0757027921
 C          2.1618300354        3.3418850251        1.6083212009
 C          1.8339418168        3.8143948818        0.2254801663
 H          1.7899935371        4.8790990478        0.0473732023
 H          2.1945466155        3.2428766721       -0.6144165995
 H          2.3410875623        4.0768710557        2.3789032342
 H          2.7553424294        2.4447969217        1.7143269123
 H          0.0270242931        3.8673565333        1.4925157477
