  62
        -98.94443323
 C          1.7031237666        1.4479168418        0.5596939345
 C          2.6296865365        1.0070641533       -0.4173922650
 C          3.3975312990       -0.1965369945       -0.0664116572
 C          3.1531435098       -0.8441118117        1.0861676552
 C          3.8595663551       -2.0777317639        1.5798617374
 C          3.3099571086       -3.3920905723        1.0084265669
 C          3.6326807994       -3.6495141329       -0.4640224596
 H          4.7069384378       -3.5475395632       -0.6211795634
 H          3.3731196801       -4.6896976439       -0.6713194183
 C          2.8782614446       -2.7441537213       -1.4483057255
 H          2.0321208613       -2.2742644529       -0.9424798945
 H          2.4723717207       -3.3482409605       -2.2626219267
 C          3.7343848974       -1.6482507160       -2.0816423894
 H          3.0952131166       -1.0491248005       -2.7347331948
 H          4.5172401462       -2.0987469638       -2.6958798318
 C          4.3918246431       -0.7037220638       -1.0673827610
 H          5.2156479179       -1.2075125384       -0.5621416250
 H          4.7883319857        0.1583356910       -1.6092464381
 H          3.7377478474       -4.2058417738        1.5987957646
 H          2.2279504521       -3.4113271611        1.1536458059
 H          4.9243514569       -2.0010911381        1.3574906861
 H          3.7334033950       -2.0950695820        2.6647828125
 O          2.2120339290       -0.4212849652        1.9727800839
 C          1.4683897669        0.7195931954        1.7299127323
 O          0.6359116744        0.9836821528        2.6218390975
 O          2.8295815471        1.5696487465       -1.5241721990
 C          0.8119219128        2.6685824001        0.3706028766
 C         -0.4160730516        2.1937157919       -0.3668168253
 C         -0.4069793992        1.9290901711       -1.7322094251
 C         -1.5222098821        1.3874870143       -2.3462402021
 C         -2.6598416940        1.0875247789       -1.6160669769
 C         -2.6739496754        1.3445800697       -0.2519090109
 C         -1.5621112192        1.9044219961        0.3601347961
 H         -1.5689597909        2.0811588466        1.4273045199
 N         -3.8096316297        1.0063912428        0.5094978812
 S         -4.3785178984       -0.5566567019        0.3253935639
 O         -5.2269310200       -0.6230317770       -0.8384562387
 O         -5.0133706848       -0.8865833975        1.5822652586
 C         -2.9369131368       -1.5798812406        0.0691255838
 C         -2.8956880898       -2.4293637582       -1.0178924887
 C         -1.7841467535       -3.2363796348       -1.1985101271
 C         -0.7328427457       -3.1758973441       -0.2970700513
 C         -0.7843752796       -2.3093324118        0.7837903317
 C         -1.8967847978       -1.5061599420        0.9743883414
 H         -1.9481431636       -0.8302059476        1.8135025344
 H          0.0358582851       -2.2415725094        1.4825254701
 H          0.1308720566       -3.8068497765       -0.4379856982
 H         -1.7386001588       -3.9083603742       -2.0401683008
 H         -3.7325416606       -2.4398057495       -1.6971673084
 H         -3.7142523887        1.2315303020        1.4896510774
 H         -3.5305682354        0.6496609065       -2.0771313509
 H         -1.5032724956        1.1847752470       -3.4061757225
 H          0.4904054320        2.1196682319       -2.2996293568
 H          0.4984572050        2.9709320605        1.3790994495
 C          1.4908442139        3.8486002860       -0.2886136317
 C          0.8562148419        5.2004285173       -0.1669412514
 C          2.1251349468        4.8987056886        0.5709692411
 H          3.0423897550        5.3558441701        0.2316019500
 H          2.0737386856        4.7702947330        1.6427070148
 H          0.8993477925        5.8676092559       -1.0139247090
 H         -0.0568699871        5.2754944268        0.4046819834
 H          1.9892130206        3.6072870358       -1.2168163304
