  62
        -98.93381876
 C         -2.3295931968       -1.0420426331        0.3476782764
 C         -2.5916406827       -0.0230160156       -0.5979918103
 C         -3.5944340851        0.9896369590       -0.2088882847
 C         -4.1641879254        0.9227244394        1.0058712621
 C         -5.2273043897        1.8214639238        1.5740144587
 C         -6.6260280019        1.2310855725        1.3274619465
 C         -7.2561852419        1.6059337334       -0.0133625256
 H         -8.1732251715        1.0213072568       -0.1164152699
 H         -7.5405747893        2.6600902176        0.0059283024
 C         -6.3761935013        1.3601497070       -1.2417746176
 H         -5.8769086681        0.3938094245       -1.1498135418
 H         -7.0287454028        1.3042087659       -2.1152977924
 C         -5.3357090072        2.4667435153       -1.4699965423
 H         -5.5804767295        3.3209635524       -0.8390063299
 H         -5.4010682361        2.8164823574       -2.5024761264
 C         -3.8749658802        2.0535808926       -1.2355743418
 H         -3.4555654427        1.6580853190       -2.1662883312
 H         -3.2884637537        2.9441138946       -0.9848871445
 H         -6.5490058966        0.1436864074        1.4075199762
 H         -7.2944029487        1.5700708581        2.1214549896
 H         -5.0534517483        1.8647113761        2.6511704747
 H         -5.1453035887        2.8240444658        1.1650199621
 O         -3.8618644374       -0.0585612917        1.8994671426
 C         -2.9600106500       -1.0582294942        1.5958389307
 O         -2.8034134106       -1.8995148783        2.5026709842
 H          0.0118502667       -0.0297013025       -0.7791681534
 C          0.6087553061       -0.6376961617       -0.1150241668
 C          0.0563501907       -1.7882468033        0.4310855540
 C          0.8421227251       -2.5691951245        1.2698419026
 C          2.1473436810       -2.2046881055        1.5518892461
 C          2.6936540274       -1.0574096786        1.0051592362
 C          1.9166544791       -0.2702462504        0.1651769922
 N          2.4608214111        0.9022421708       -0.3917570648
 S          3.8987053653        0.7467211050       -1.2485664452
 O          3.9178547856        1.8595140465       -2.1722741232
 O          4.0271314036       -0.5716172709       -1.8256661596
 C          5.1573958511        0.9977697656       -0.0144218439
 C          5.1279086205        2.1702456544        0.7150600573
 C          6.1042306181        2.3858605590        1.6744221714
 C          7.0896735184        1.4325387831        1.8845651996
 C          7.1077844466        0.2624657120        1.1410325782
 C          6.1330319920        0.0398938363        0.1806725296
 H          6.1031210417       -0.8570835320       -0.4171129568
 H          7.8750287208       -0.4769250342        1.3055112527
 H          7.8482542054        1.6030797730        2.6320931336
 H          6.0935717904        3.2946417365        2.2543912800
 H          4.3473224440        2.8861189919        0.5180753770
 H          1.7892675820        1.4306904971       -0.9311719852
 H          3.7093197367       -0.7687382786        1.2213288268
 H          2.7460469831       -2.8200209886        2.2058519524
 H          0.4197217793       -3.4615179002        1.7083668707
 C         -1.3589669569       -2.1859403656        0.0993560285
 H         -1.6568278210       -2.9699000701        0.8131340394
 C         -1.4927498523       -2.7771255436       -1.2993073593
 C         -0.4345243165       -2.6837552117       -2.3536695172
 C         -0.6992221380       -3.9929354242       -1.6766939192
 H         -1.1862105460       -4.7785610329       -2.2341427173
 H          0.0377541655       -4.3424318084       -0.9692535817
 H         -0.7589893494       -2.5488836123       -3.3745411509
 H          0.4845971582       -2.1666629942       -2.1238299533
 H         -2.5182764956       -2.7415466438       -1.6533441806
 O         -2.0295853517        0.0609064531       -1.7224045711
