  62
        -98.94086783
 C          2.3160474900        0.3664651099        0.2996692213
 C          3.5508702399        0.8592988395        0.7849401819
 C          4.7031506800       -0.0391235002        0.6387966810
 C          4.5237028002       -1.2524147897        0.0848557597
 C          5.6200034803       -2.2431830593       -0.1779600813
 C          6.2128688804       -2.0554244677       -1.5816190610
 C          6.5808449303       -0.6082270173       -1.9092402994
 H          5.6679738802       -0.0094989474       -1.9516849689
 H          7.0149326104       -0.6024688262       -2.9114338294
 C          7.5642513101        0.0363242317       -0.9223492187
 H          8.3288047601        0.5714315024       -1.4894120981
 H          8.0710842702       -0.7381275089       -0.3456648595
 C          6.9306215100        1.0474328206        0.0348169723
 H          6.3437742599        1.7727947512       -0.5343498469
 H          7.7351080099        1.5954719402        0.5323526830
 C          6.0342194299        0.4565592894        1.1302408616
 H          5.8107465298        1.2554762786        1.8433164925
 H          6.5700780100       -0.3351589711        1.6574877608
 H          5.4784973505       -2.3960213870       -2.3153256314
 H          7.0988667405       -2.6869020775       -1.6691114116
 H          6.3971915402       -2.1255417100        0.5746622889
 H          5.2007845004       -3.2477892494       -0.1016864124
 O          3.3165679203       -1.7008739393       -0.3474461409
 C          2.1843457502       -0.9037321395       -0.2604288801
 O          1.1468065303       -1.4339686992       -0.7030459507
 H         -1.5988524000        1.0186153700       -0.2023416683
 C         -1.3242950700        0.5469211891        0.7251902612
 C         -0.0099380101        0.5671377488        1.1646736213
 C          0.2983129799       -0.0458609225        2.3766288707
 C         -0.6794855501       -0.6863308434        3.1116370499
 C         -1.9855270501       -0.7270925630        2.6560801098
 C         -2.3094945800       -0.1004180118        1.4589152504
 N         -3.6447374700       -0.0772795114        1.0145333603
 S         -4.0158427799       -0.2248335897       -0.6251405898
 O         -3.5275189297       -1.4836603391       -1.1444961211
 O         -3.5946446299        0.9648785710       -1.3189679086
 C         -5.7963240199       -0.2521823500       -0.5170875000
 C         -6.4615195600        0.9473452797       -0.3472912488
 C         -7.8422333400        0.9375250195       -0.2312623389
 C         -8.5316068699       -0.2649137905       -0.2861577702
 C         -7.8508769597       -1.4604713903       -0.4595168014
 C         -6.4694216997       -1.4575452600       -0.5749918113
 H         -5.8993368096       -2.3613697598       -0.7193935423
 H         -8.3896757396       -2.3931700203       -0.5054084825
 H         -9.6063884599       -0.2700648107       -0.1959454703
 H         -8.3751247701        1.8653373493       -0.0993064080
 H         -5.8842213501        1.8565845898       -0.3189499878
 H         -4.2310973000       -0.7046573821        1.5497798196
 H         -2.7478070600       -1.2365530037        3.2260925292
 H         -0.4229381401       -1.1655534943        4.0446586394
 H          1.3207966599       -0.0213623828        2.7290319708
 C          1.0880583199        1.2523774897        0.3897684521
 H          1.4077520298        2.1387006191        0.9591623431
 C          0.6611881800        1.6939173111       -0.9945902675
 C         -0.0172271401        3.0150168313       -1.1938243961
 C          1.3931067099        2.8191061719       -1.6603395762
 H          1.5844092300        2.7538408230       -2.7210242663
 H          2.1868198198        3.2916602614       -1.1000468556
 H         -0.1805364803        3.6275155403       -0.3199778155
 H         -0.8041004601        3.0801516320       -1.9304815861
 H          0.3485772001        0.8621722917       -1.6182015084
 O          3.6807677398        1.9937770089        1.3188884131
