  62
        -98.94429971
 C          1.7754487459        1.2678882657        0.2674547051
 C          1.3453294746        0.1766378573       -0.5193688664
 C          1.8984899917       -1.1456947573       -0.1797215185
 C          2.7800277048       -1.2366217624        0.8329021995
 C          3.5014366531       -2.4708669713        1.2992978271
 C          4.6631396617       -2.8678904451        0.3659606344
 C          4.4131844626       -2.6398805995       -1.1243359805
 H          4.0977681656       -1.6063428585       -1.2792646386
 H          5.3657657200       -2.7688501188       -1.6449212251
 C          3.4001140288       -3.5834734526       -1.7690556669
 H          3.2837354399       -3.2813536982       -2.8127523344
 H          3.8049300565       -4.5983880578       -1.7586788893
 C          2.0189350031       -3.6214235367       -1.1170042463
 H          2.0724622262       -4.1093387866       -0.1472477895
 H          1.3764655136       -4.2466470946       -1.7444705239
 C          1.3149374578       -2.2715855914       -0.9967240611
 H          1.1625141106       -1.8579802525       -1.9997981574
 H          0.3110637968       -2.4419275318       -0.5841621246
 H          5.5325602206       -2.2688771480        0.6463003400
 H          4.9065265683       -3.9169260168        0.5404685539
 H          3.9083726693       -2.2477475850        2.2879823073
 H          2.7868485225       -3.2817375522        1.4139669552
 O          3.1858847149       -0.1531495759        1.5538362211
 C          2.6736124417        1.1084754469        1.3193044304
 O          3.0915832914        1.9930182499        2.0965690170
 H         -0.3551896291        1.1741970126        1.6231200589
 C         -0.9417199552        1.7608935455        0.9305273020
 C         -0.3080030955        2.5921249781        0.0155665076
 C         -1.0949290779        3.3414828764       -0.8509622850
 C         -2.4747215897        3.2353520204       -0.8186962459
 C         -3.0973132277        2.3650719799        0.0572661206
 C         -2.3192417965        1.6195125357        0.9347929379
 N         -2.8973678139        0.6951223123        1.8321462349
 S         -2.5339240445       -0.9220798761        1.5720179763
 O         -3.3078916654       -1.6426512235        2.5614397757
 O         -1.1086587800       -1.1220789403        1.6091395352
 C         -3.1937730242       -1.2635105746       -0.0505912787
 C         -4.4502108660       -1.8330117080       -0.1396528508
 C         -5.0080118710       -2.0395575674       -1.3904083250
 C         -4.3065778953       -1.6648749441       -2.5268454868
 C         -3.0496113196       -1.0910852987       -2.4190933928
 C         -2.4818797232       -0.8832457849       -1.1705142597
 H         -1.5017830236       -0.4419233426       -1.0693306270
 H         -2.4978181503       -0.7970485226       -3.2974463969
 H         -4.7407563234       -1.8213901368       -3.5017740206
 H         -5.9847616476       -2.4880545960       -1.4748052059
 H         -4.9548340831       -2.1109263472        0.7717257758
 H         -3.9004755190        0.7910225884        1.9194139003
 H         -4.1718028575        2.2593080946        0.0638520784
 H         -3.0714786797        3.8234596014       -1.4989063111
 H         -0.6254647056        4.0056525272       -1.5581959618
 C          1.2010156166        2.6492752671        0.0144618213
 H          1.5263298467        3.2753681786        0.8588654136
 C          1.7723368529        3.2230911075       -1.2674434922
 C          2.0031782471        4.6973205342       -1.4061489617
 C          3.1680810404        3.7674091810       -1.2536687254
 H          3.8020487988        3.5853632856       -2.1084397141
 H          3.6936766285        3.7508298008       -0.3096406638
 H          1.7470327307        5.3259671178       -0.5667100634
 H          1.8411654477        5.1565468592       -2.3697245492
 H          1.4609749525        2.6664579221       -2.1440496455
 O          0.5318501116        0.3015168518       -1.4738596193
