  62
        -98.93640245
 C         -1.1022593296       -1.4511905326        0.5730031896
 C         -1.9580374428       -1.1364361072       -0.5104909347
 C         -3.1318405653       -0.3072454402       -0.1871978925
 C         -3.3028050352        0.1363320800        1.0704084335
 C         -4.3992244701        1.0531123556        1.5335751905
 C         -4.0759505247        2.5058913198        1.1293003789
 C         -5.0370910430        3.1048169376        0.1014924449
 H         -5.9698919093        3.3718030386        0.6029165424
 H         -4.5844509589        4.0280156029       -0.2668884165
 C         -5.3868107645        2.2098622743       -1.0914145042
 H         -5.8467937863        2.8521823241       -1.8453424288
 H         -6.1460345044        1.4843874130       -0.7953146246
 C         -4.2137227487        1.4584858484       -1.7342411129
 H         -4.3560226464        1.4676120447       -2.8168819029
 H         -3.2714456456        1.9709779867       -1.5348327749
 C         -4.0894879817       -0.0167458057       -1.3091820715
 H         -5.0786075977       -0.4102570724       -1.0587460375
 H         -3.7092786970       -0.5926641197       -2.1581263586
 H         -4.0865560556        3.1414649207        2.0163986648
 H         -3.0553583145        2.5360217289        0.7391774358
 H         -4.4578950114        0.9669560200        2.6189225769
 H         -5.3485236164        0.7382266937        1.1058570890
 O         -2.4287351260       -0.1400833060        2.0732802176
 C         -1.3020515735       -0.9129765311        1.8457039625
 O         -0.5620384754       -1.0441610166        2.8420035041
 O         -1.7649153860       -1.5228644046       -1.6921039346
 C          0.1629191794       -2.2682082296        0.3755260262
 C          0.9414100206       -1.7227787477       -0.7972739201
 C          1.4710246163       -2.4980564780       -1.8197587119
 C          2.1979307153       -1.9048581011       -2.8382377844
 C          2.4328854984       -0.5420499800       -2.8487486765
 C          1.9040953346        0.2424632082       -1.8297723760
 C          1.1649184396       -0.3523747079       -0.8223718527
 H          0.7291504807        0.2680074338       -0.0538067999
 N          2.1129557388        1.6297980661       -1.7903230082
 S          2.2777354024        2.3849133220       -0.3091281214
 O          0.9908428524        2.5478454433        0.3216435289
 O          2.9872697202        3.6104380869       -0.6102269128
 C          3.3266825044        1.2998081430        0.6435172344
 C          4.6260488383        1.1302204252        0.2046254071
 C          5.4592019788        0.2604822676        0.8878551377
 C          4.9801232064       -0.4272675039        1.9928359087
 C          3.6768256278       -0.2411145697        2.4255984878
 C          2.8391128088        0.6306978155        1.7470521093
 H          1.8183469629        0.7868341965        2.0614213692
 H          3.2962880046       -0.7732500940        3.2831556367
 H          5.6249505801       -1.1108239113        2.5221221537
 H          6.4749729025        0.1179074094        0.5563401017
 H          4.9649557137        1.6895741245       -0.6521100950
 H          2.7571893694        1.9885950296       -2.4791083488
 H          3.0044592713       -0.0847848043       -3.6416405322
 H          2.5944643203       -2.5162783201       -3.6344560551
 H          1.2970958961       -3.5612457114       -1.8341532202
 H          0.7642531364       -2.0699537726        1.2793363788
 C         -0.0499087323       -3.7738355019        0.3253095964
 C         -1.2740906254       -4.4045441235        0.9177309634
 C         -1.0696019452       -4.4142200327       -0.5659852110
 H         -0.8175260283       -5.3517534508       -1.0399195758
 H         -1.6760535091       -3.7633834726       -1.1747213711
 H         -1.1614752472       -5.3301421988        1.4623492077
 H         -2.0284944148       -3.7467855931        1.3254900886
 H          0.8794300748       -4.3167336512        0.4670931336
