  62
        -98.94601042
 C         -1.1746524296       -1.2664796290        0.2832016410
 C         -1.4419440193       -0.3603847697       -0.7711064497
 C         -2.3953565095        0.7175212204       -0.4660990506
 C         -2.8871752700        0.8388613211        0.7791466091
 C         -3.9015268503        1.8579660212        1.2083346681
 C         -5.3297095302        1.3140226010        1.0585963079
 C         -5.6091658796        0.6699686202       -0.2995114318
 H         -4.9972608294       -0.2292492498       -0.4013119211
 H         -6.6529652295        0.3484364701       -0.2972982120
 C         -5.3615782092        1.5895470695       -1.5035427823
 H         -5.3400016194        2.6299724197       -1.1770311029
 H         -6.1966122189        1.4866188790       -2.1998328025
 C         -4.0860503489        1.2783378692       -2.2890180616
 H         -4.0604849787        0.2149338390       -2.5400494410
 H         -4.1222112986        1.8350166486       -3.2293729420
 C         -2.7704387492        1.6430378297       -1.5894142813
 H         -1.9668496989        1.5636298794       -2.3271875810
 H         -2.8198052294        2.6773672599       -1.2436557819
 H         -6.0309788103        2.1336974410        1.2253611072
 H         -5.4967205804        0.5618066614        1.8329949183
 H         -3.7269961707        2.1005290818        2.2578661480
 H         -3.7823759701        2.7602316609        0.6117950776
 O         -2.5414479303        0.0032184817        1.7897601897
 C         -1.7103501501       -1.0777989583        1.5625814806
 O         -1.5206016904       -1.7939693677        2.5648728611
 H          1.1202604110       -0.8346631098       -1.4536852884
 C          1.7340432308       -1.2579045693       -0.6721980879
 C          1.1666995005       -2.1454470988        0.2308053224
 C          1.9676165502       -2.6685541881        1.2387293930
 C          3.3014988701       -2.3111731579        1.3385267233
 C          3.8598403404       -1.4147203084        0.4441943830
 C          3.0635293707       -0.8832783791       -0.5607982677
 N          3.6048086809        0.0899154505       -1.4367800480
 S          3.9010324805        1.5555352810       -0.6760825688
 O          4.0163623008        2.5375681104       -1.7296689693
 O          5.0483670702        1.4048502516        0.1819855218
 C          2.4417471701        1.8567415714        0.3070786005
 C          1.3651854802        2.4920738409       -0.2776330903
 C          0.2054820199        2.6619456612        0.4601833592
 C          0.1350949495        2.1764277020        1.7564350195
 C          1.2217879893        1.5332795624        2.3271928402
 C          2.3894858196        1.3735531821        1.5992041408
 H          3.2578709695        0.8877988924        2.0128768014
 H          1.1580077690        1.1495440130        3.3329220404
 H         -0.7734433707        2.2961025122        2.3258006990
 H         -0.6417648400        3.1624884609        0.0208542486
 H          1.4549729706        2.8523493703       -1.2900543704
 H          3.0058967512        0.2572655300       -2.2347308183
 H          4.8875218903       -1.0990040282        0.5237269532
 H          3.9108264499       -2.7275416174        2.1261875337
 H          1.5332440700       -3.3465455378        1.9587409932
 C         -0.2964362694       -2.5008314090        0.1315963520
 H         -0.5419788297       -3.1440159085        0.9870142123
 C         -0.5799604888       -3.2729799298       -1.1430292777
 C         -0.2194938187       -4.7251730198       -1.2084940467
 C         -1.6588685087       -4.3117374899       -1.1456372175
 H         -2.2685086684       -4.4198136805       -2.0302417676
 H         -2.1969095891       -4.4763930394       -0.2231280676
 H          0.2170632211       -5.1732326392       -0.3287499362
 H          0.1625008517       -5.1195310403       -2.1375603563
 H         -0.4575055786       -2.6825233303       -2.0413034979
 O         -0.9297742188       -0.4250177503       -1.9217266694
