  62
        -98.92565449
 C          2.2821157395        0.5548870008        0.7373875571
 C          2.2541527471       -0.1729346473       -0.4742911520
 C          2.0430010463       -1.6292275869       -0.3637237890
 C          1.8724455228       -2.1762570869        0.8522087271
 C          1.5879857555       -3.6124858441        1.2150104170
 C          2.3801264574       -4.6949010321        0.4658663053
 C          1.5315125602       -5.4916968486       -0.5265129386
 H          2.0000495516       -6.4659852305       -0.6826194654
 H          0.5512054382       -5.6680411851       -0.0790987382
 C          1.3507063048       -4.8419423797       -1.8970942993
 H          2.2929143678       -4.8921804016       -2.4471338179
 H          0.6187204084       -5.4354709042       -2.4496881780
 C          0.8852869995       -3.3844456434       -1.8781061231
 H          0.1161561937       -3.2272588140       -1.1216064964
 H          0.4252498667       -3.1675578631       -2.8446866106
 C          2.0266632104       -2.3780317127       -1.6680935831
 H          2.9927187095       -2.8718374562       -1.8073022404
 H          1.9705446767       -1.5955068860       -2.4310792790
 H          3.2348079052       -4.2465887032       -0.0376876730
 H          2.7711115456       -5.3918195997        1.2090278776
 H          1.7908151736       -3.6783276061        2.2867455514
 H          0.5146847293       -3.7819251117        1.0920233742
 O          1.9072977003       -1.4324862768        1.9971790468
 C          2.0904650640       -0.0639495711        1.9695957834
 O          2.0751086010        0.4828280706        3.0939187395
 H         -0.0967359335        1.5703060671        1.0337945393
 C          0.0415836509        2.1647776774        0.1405225687
 C          1.3253671727        2.5848818649       -0.2058120081
 C          1.4614513309        3.3574032042       -1.3506852810
 C          0.3556214872        3.6632104042       -2.1290848131
 C         -0.9023733999        3.1948437356       -1.8068904132
 C         -1.0568492027        2.4314457205       -0.6543522230
 N         -2.3171627304        1.9360492798       -0.2736801243
 S         -2.3770689217        0.4434923175        0.5160193409
 O         -2.1615462786        0.6599389126        1.9261506413
 O         -1.5095001063       -0.5149159218       -0.1302885733
 C         -4.0875956534        0.0184274428        0.2395061973
 C         -5.0527539883        0.6361385441        1.0127679080
 C         -6.3867737413        0.3410780188        0.7813309351
 C         -6.7320323202       -0.5612322984       -0.2141487094
 C         -5.7526438101       -1.1745493281       -0.9806195246
 C         -4.4161876696       -0.8824564184       -0.7553814476
 H         -3.6192872248       -1.3376772450       -1.3215639741
 H         -6.0232502001       -1.8776302449       -1.7517601344
 H         -7.7709210278       -0.7897442744       -0.3918977146
 H         -7.1504324082        0.8143609714        1.3770482478
 H         -4.7343732225        1.3224772164        1.7799979262
 H         -2.9972916489        1.9858601741       -1.0203111643
 H         -1.7528537179        3.4091638247       -2.4358138554
 H          0.4878615932        4.2586281335       -3.0199412833
 H          2.4236914822        3.7073571784       -1.6763848074
 C          2.4026210075        2.0760104865        0.7246373530
 H          2.1108162836        2.3919688943        1.7411926846
 C          3.8649499823        2.4639326123        0.5771004563
 C          4.6103244526        2.5728736393       -0.7157970134
 C          4.3679617043        3.7987898664        0.1152424548
 H          5.2100477543        4.2224879358        0.6426096712
 H          3.6531735097        4.5334658513       -0.2164548206
 H          5.6125782635        2.1701402385       -0.7483671002
 H          4.0592073416        2.4154315869       -1.6280796899
 H          4.4205089446        2.0149292758        1.3987218828
 O          2.3909867052        0.3613721804       -1.6048479280
