  62
        -98.94555352
 C         -1.9646237001       -1.5149490011       -0.0978740104
 C         -1.6883917301       -0.2673534910       -0.7086303601
 C         -2.8167917701        0.6735542491       -0.7678390798
 C         -4.0176618001        0.2957289790       -0.2930321197
 C         -5.2335693200        1.1740093390       -0.2410763694
 C         -5.3184552598        1.9201996987        1.0979438408
 C         -4.0172393198        2.6141639185        1.5011036809
 H         -4.2041748096        3.1312530783        2.4448718410
 H         -3.2540757998        1.8570894185        1.6959241706
 C         -3.4850768699        3.6146473488        0.4657898211
 H         -3.1760309598        4.5235562786        0.9863357113
 H         -4.2833707699        3.8926642490       -0.2233976388
 C         -2.2742432700        3.1236609589       -0.3303452492
 H         -1.8564714300        3.9804057291       -0.8652612290
 H         -1.5074445499        2.7557874287        0.3558645706
 C         -2.5537902801        2.0268961892       -1.3653801594
 H         -3.3780254002        2.3311160994       -2.0135239993
 H         -1.6550671702        1.9094409993       -1.9774610296
 H         -5.5798704298        1.2018709685        1.8786012807
 H         -6.1212006998        2.6570236087        1.0329640511
 H         -5.1989656901        1.8849885892       -1.0640793392
 H         -6.1184586801        0.5451729191       -0.3531471994
 O         -4.2515866500       -0.9273483411        0.2494746400
 C         -3.2288756101       -1.8524175012        0.3827307496
 O         -3.5651334000       -2.9194051913        0.9360772094
 H          1.8080458698       -2.3261691311       -0.6772429511
 C          1.5906562899       -1.8563394214        0.2690530991
 C          0.3048353200       -1.8926113214        0.7822501592
 C          0.0617211501       -1.2787651217        2.0085682394
 C          1.0739801302       -0.6330981919        2.6913465894
 C          2.3537298202       -0.5830522519        2.1660680993
 C          2.6081080800       -1.1982233016        0.9488270791
 N          3.9057576500       -1.1458867015        0.4038698390
 S          4.6030854500        0.3684853285        0.2327623593
 O          5.6623816099        0.1852689488       -0.7343348709
 O          5.0079329202        0.8546237782        1.5280331794
 C          3.3200488000        1.4051480988       -0.4417965503
 C          2.6445998801        2.2861367386        0.3768130000
 C          1.6247480600        3.0516148188       -0.1643579597
 C          1.2976730899        2.9196846891       -1.5039971897
 C          1.9828140498        2.0269428693       -2.3119608100
 C          3.0023003398        1.2585975991       -1.7770650103
 H          3.5639341897        0.5600851292       -2.3768885305
 H          1.7195387296        1.9221253996       -3.3521968900
 H          0.5015056199        3.5153144392       -1.9216490794
 H          1.0856362601        3.7456797286        0.4607818106
 H          2.9314438502        2.3617818383        1.4130328600
 H          3.9966137198       -1.6631642013       -0.4591375012
 H          3.1542883003       -0.0732927820        2.6769943193
 H          0.8663937004       -0.1597575622        3.6393313696
 H         -0.9411344498       -1.3070249818        2.4139411995
 C         -0.8504120601       -2.5353509212        0.0550645692
 H         -1.2534523001       -3.3408208614        0.6854016490
 C         -0.4849587903       -3.1105670109       -1.2972111610
 C          0.1178443296       -4.4788285109       -1.3986033514
 C         -1.2948687804       -4.2468374207       -1.8418643912
 H         -1.5145298205       -4.2638389904       -2.8988902412
 H         -2.0971570204       -4.6239912708       -1.2244177812
 H          0.8667194995       -4.6604648807       -2.1550385515
 H          0.2776507697       -5.0244639411       -0.4808919616
 H         -0.1585912104       -2.3512343407       -1.9988591408
 O         -0.5638768402        0.0448381591       -1.1768031802
