  62
        -98.93778698
 C         -2.3119457309       -1.3408694597       -0.1432720991
 C         -3.2402998309       -0.8819990592        0.8283183807
 C         -4.1469149411        0.1992685204        0.4189683200
 C         -4.0578008112        0.6858414496       -0.8317711003
 C         -4.8520492314        1.8361084892       -1.3819071510
 C         -4.2690384316        3.1697992596       -0.8724718719
 C         -5.2003756617        3.9527926200        0.0536877377
 H         -4.6085764218        4.7455943504        0.5162503471
 H         -5.9778691818        4.4295541395       -0.5469553526
 C         -5.8907090115        3.1390285706        1.1525263982
 H         -6.2956431416        3.8553803510        1.8704034778
 H         -6.7435189915        2.6042324102        0.7319100486
 C         -5.0042501713        2.1369729013        1.9034293888
 H         -3.9560195814        2.4321577214        1.8465140786
 H         -5.2836887513        2.1602461519        2.9586482388
 C         -5.1482877411        0.6773008209        1.4336273398
 H         -6.1603300611        0.5140054105        1.0532977899
 H         -5.0097573910        0.0175538315        2.2950771802
 H         -3.3301329516        2.9585781501       -0.3552079118
 H         -4.0189374217        3.8061292591       -1.7229304323
 H         -4.7877482915        1.7847537985       -2.4690163110
 H         -5.8947387414        1.7367668992       -1.0885061309
 O         -3.1591654212        0.2216663992       -1.7362126500
 C         -2.2612078910       -0.7884984005       -1.4223845894
 O         -1.5034726110       -1.0840123810       -2.3691242892
 O         -3.3111431508       -1.3659862884        1.9894385110
 C         -1.3670505007       -2.4519647092        0.2880235016
 C         -0.0094081708       -1.8808659488        0.6213457012
 C          0.4154468192       -1.7887002179        1.9419637511
 C          1.6442492892       -1.2318427975        2.2497490107
 C          2.4714360791       -0.7528861380        1.2496105704
 C          2.0496859290       -0.8273916690       -0.0713709795
 C          0.8234349491       -1.3985306793       -0.3784861391
 H          0.4931906691       -1.4337821300       -1.4059104491
 N          2.8769025389       -0.3295861695       -1.0961309799
 S          3.4240561687        1.2513099307       -0.9365036809
 O          2.5091666686        2.0544980911       -0.1569682214
 O          3.6906765986        1.7041071599       -2.2844273612
 C          4.9711214887        1.0709337415       -0.0720340209
 C          5.1869028787        1.7537164223        1.1089701787
 C          6.3999193387        1.5968395929        1.7616837387
 C          7.3705979888        0.7656797527        1.2239892192
 C          7.1396107389        0.0899934019        0.0348196697
 C          5.9296620388        0.2428988813       -0.6229561804
 H          5.7105193489       -0.2612255494       -1.5493464100
 H          7.8968801790       -0.5552554983       -0.3804222099
 H          8.3126075989        0.6436274431        1.7348702193
 H          6.5811074087        2.1218615635        2.6857788684
 H          4.4000283286        2.3837797524        1.4921789683
 H          2.4861044089       -0.4697486101       -2.0176515098
 H          3.4271249290       -0.3127103978        1.4828239201
 H          1.9612030192       -1.1681838868        3.2795032407
 H         -0.2355193507       -2.1409030675        2.7289998114
 H         -1.7996212106       -2.8464487887        1.2170928819
 C         -1.2725420306       -3.5847720799       -0.7142595277
 C         -0.7677591704       -4.9180208395       -0.2529907168
 C         -2.2152802404       -4.7433149699       -0.5991457269
 H         -2.5894434004       -5.1934398106       -1.5064082766
 H         -2.9347427404       -4.7237785595        0.2064532831
 H         -0.1444973103       -5.4916674298       -0.9214629865
 H         -0.5050220103       -5.0178660188        0.7891972532
 H         -1.0070908507       -3.2616635805       -1.7122461479
