  62
        -98.93782500
 C          0.5570365295        2.1740687206       -0.7024873797
 C          1.0742857704        1.0994480610       -1.4655806197
 C          2.4236542605        0.6359202617       -1.0903717291
 C          3.0830203396        1.2397253418       -0.0878046986
 C          4.3899940796        0.7843867623        0.4954828219
 C          4.1437392398       -0.4222471980        1.4252901415
 C          4.7845592907       -1.7265208176        0.9498341915
 H          5.8603787806       -1.6850106771        1.1356658621
 H          4.3715215108       -2.5300185780        1.5639260511
 C          4.5726020416       -2.0706724073       -0.5275903087
 H          5.2777800516       -1.5063033968       -1.1403237282
 H          4.8275161122       -3.1257201472       -0.6489600388
 C          3.1550343918       -1.8402494380       -1.0673128093
 H          2.9107836126       -2.6626084879       -1.7439746597
 H          2.4294698314       -1.8692086185       -0.2521992997
 C          2.9823716115       -0.5291295879       -1.8598418091
 H          3.9367081716       -0.2454270272       -2.3121322786
 H          2.2703302420       -0.6995126280       -2.6732072995
 H          4.5249643591       -0.1973955681        2.4231387717
 H          3.0649781398       -0.5669855286        1.5285487609
 H          5.0818510501        0.5201331329       -0.3013738778
 H          4.8066265789        1.6198500924        1.0588496323
 O          2.5800666787        2.3095650613        0.5815654514
 C          1.3040844986        2.7738291307        0.3150618208
 O          0.9487347978        3.7313515404        1.0330666209
 O          0.4671617212        0.5320836909       -2.4088361201
 C         -0.8732275708        2.6890609398       -0.7983147103
 C         -1.6348181411        2.1481755891        0.3877180492
 C         -2.4476499719        2.9569567485        1.1705442390
 C         -3.0733538822        2.4396836779        2.2919694485
 C         -2.8935848917        1.1178093479        2.6556104383
 C         -2.0872852109        0.2966160385        1.8722687785
 C         -1.4850274005        0.8131771291        0.7362010789
 H         -0.8433053199        0.1842096296        0.1412909291
 N         -1.8984964403       -1.0456340014        2.2067259183
 S         -0.7489829694       -2.0295194807        1.5064133686
 O         -0.7487210392       -3.2055733809        2.3515579783
 O          0.5267248803       -1.3700501599        1.3526587394
 C         -1.4829339384       -2.4368747307       -0.0621357719
 C         -2.7372725581       -3.0167604113       -0.0350535326
 C         -3.3585000674       -3.3278410914       -1.2324739730
 C         -2.7196656069       -3.0529199607       -2.4331170126
 C         -1.4593501672       -2.4782036201       -2.4426595919
 C         -0.8304467880       -2.1690054800       -1.2465001015
 H          0.1414055718       -1.7032932395       -1.2311255008
 H         -0.9589947868       -2.2494324596       -3.3696518315
 H         -3.2070935463       -3.2871001008       -3.3664378329
 H         -4.3384729671       -3.7772581119       -1.2281918436
 H         -3.1982393885       -3.2150796618        0.9183031671
 H         -2.2001767406       -1.3353720018        3.1228964781
 H         -3.3614154019        0.7232818075        3.5443921180
 H         -3.6951722828        3.0783070074        2.9009111084
 H         -2.5623452323        4.0001909185        0.9160202692
 H         -0.8131013114        3.7834033198       -0.6770370000
 C         -1.5676142199        2.4147945998       -2.1214591107
 C         -2.5411218993        1.2955064893       -2.3178231815
 C         -3.0305806200        2.7103840291       -2.2744135814
 H         -3.3698008798        3.1700585991       -3.1901771314
 H         -3.5708061706        3.0241615786       -1.3939707416
 H         -2.5184210585        0.7775145596       -3.2638347116
 H         -2.7566951193        0.6516778390       -1.4787954217
 H         -0.9318444196        2.6503898003       -2.9672664103
