  62
        -98.93944384
 C         -2.2340714030       -0.8657918671       -0.0613701870
 C         -3.2251584297       -0.6723387784        0.9320778380
 C         -4.0972595943        0.5050855957        0.7850291713
 C         -3.9077258486        1.3386266221       -0.2547465578
 C         -4.5993816711        2.6309133215       -0.6361849340
 C         -5.9205912885        3.0320015862        0.0148307233
 C         -7.1075636766        2.1391481430       -0.3451854905
 H         -7.3535018258        2.2967323990       -1.3983695030
 H         -7.9669676578        2.4584570757        0.2483088230
 C         -6.8914749100        0.6416730117       -0.1416374865
 H         -6.0986209531        0.2917848492       -0.8059556220
 H         -7.8099194129        0.1283134261       -0.4388866420
 C         -6.5642775645        0.2171872697        1.2885974019
 H         -6.5977310903       -0.8749495887        1.3230738166
 H         -7.3292874074        0.5966203411        1.9686172344
 C         -5.1843015031        0.6538820064        1.8105269443
 H         -4.9132840586       -0.0048478365        2.6406040116
 H         -5.2100451731        1.6701849087        2.1964370881
 H         -6.1473268586        4.0411205181       -0.3399619427
 H         -5.8047185286        3.0968086510        1.0926377642
 H         -4.7341054766        2.5867018536       -1.7217211893
 H         -3.8660998782        3.4238380048       -0.4505350572
 O         -2.9242754618        1.1230928909       -1.1766151505
 C         -2.0719356268        0.0326361241       -1.1139127208
 O         -1.2457475857       -0.0121594509       -2.0467380584
 O         -3.3750332942       -1.4525705494        1.9095949433
 C         -1.3132329590       -2.0676594801        0.0770016112
 C          0.0564606122       -1.5689104280        0.4658821009
 C          0.3487457700       -1.3480253229        1.8088856315
 C          1.5712876632       -0.8264180971        2.1882126078
 C          2.5240310712       -0.5037797820        1.2372208582
 C          2.2342814878       -0.7021909301       -0.1055242094
 C          1.0152343866       -1.2494726104       -0.4831082602
 H          0.7975127687       -1.3836419024       -1.5308866843
 N          3.1880174780       -0.3613689084       -1.0809269491
 S          3.9192198177        1.1461899584       -0.9725054277
 O          3.0715549163        2.1113780651       -0.3107618125
 O          4.3310315368        1.4671376359       -2.3219338174
 C          5.3726606132        0.8329672378        0.0100293997
 C          5.6286082210        1.6020874597        1.1282046698
 C          6.7711304192        1.3466287030        1.8708511398
 C          7.6335528788        0.3326820723        1.4833955884
 C          7.3636845279       -0.4290939755        0.3561356449
 C          6.2239986151       -0.1782048112       -0.3909684360
 H          5.9791464683       -0.7446815435       -1.2737708143
 H          8.0365609858       -1.2168834825        0.0580593823
 H          8.5211486734        0.1350546846        2.0634112460
 H          6.9821927159        1.9383162798        2.7471316440
 H          4.9260281198        2.3758950814        1.3944717370
 H          2.8674372125       -0.5287974379       -2.0243557697
 H          3.4747510499       -0.0850888715        1.5241930189
 H          1.7853825626       -0.6653088670        3.2338359889
 H         -0.4035838014       -1.5765581375        2.5506602477
 H         -1.7167220829       -2.6440580390        0.9200825838
 C         -1.3152765445       -2.9454624378       -1.1568729200
 C         -0.7388115306       -4.3261152439       -1.0696339952
 C         -2.2193471756       -4.1391977246       -1.2041734187
 H         -2.6892294917       -4.3911594059       -2.1431388245
 H         -2.8399073315       -4.3306227658       -0.3411099732
 H         -0.1896783966       -4.7105373229       -1.9154136064
 H         -0.3526931982       -4.6425543457       -0.1126020681
 H         -1.1785103761       -2.3953949198       -2.0797030917
