  62
        -98.94331488
 C         -2.3444271077       -0.5719700935        0.1196939818
 C         -3.3592970401       -0.2933229894        1.0689453104
 C         -4.2896772027        0.7880259728        0.7214370039
 C         -4.1131363193        1.4609801613       -0.4303606581
 C         -5.0106212076        2.5548479343       -0.9304425633
 C         -6.1288968247        1.9932537583       -1.8196609218
 C         -6.8694964593        0.8059286577       -1.2043220721
 H         -7.6547192335        0.5137450205       -1.9049484938
 H         -6.1820498446       -0.0390713617       -1.1219933163
 C         -7.4904560919        1.0887726355        0.1707674008
 H         -7.5678586013        2.1651282118        0.3281114750
 H         -8.5050744391        0.6852566634        0.1865397143
 C         -6.7418913785        0.4578311389        1.3463084303
 H         -6.5794016825       -0.6048342663        1.1491725351
 H         -7.3768757728        0.5323951872        2.2331155914
 C         -5.3913972631        1.0953863479        1.6964132907
 H         -5.5130706669        2.1741917494        1.8128644844
 H         -5.0667820591        0.6807121886        2.6552073583
 H         -6.8372453570        2.7961694201       -2.0316669936
 H         -5.6890550690        1.6692841457       -2.7657378395
 H         -5.4385622256        3.0834235202       -0.0808813373
 H         -4.4087906086        3.2521697292       -1.5155879989
 O         -3.1107773452        1.1854905280       -1.3021357578
 C         -2.2055683278        0.1624236787       -1.0581142219
 O         -1.3519664987        0.0173114235       -1.9536066672
 H          0.8356789176       -1.5298615194       -1.2312550472
 C          1.0023794819       -1.0606295965       -0.2744533996
 C         -0.0022684995       -1.0621820831        0.6798042533
 C          0.2367995555       -0.4341920717        1.8996257373
 C          1.4478357595        0.1810084497        2.1521506748
 C          2.4441996729        0.1920241226        1.1910304720
 C          2.2156164188       -0.4293148400       -0.0286140498
 N          3.2120864003       -0.3999242035       -1.0175223472
 S          4.7804007692       -0.8212437586       -0.6061106791
 O          5.3924799571       -1.2614190647       -1.8408763496
 O          4.8059000277       -1.7593756317        0.4923105857
 C          5.5242492221        0.7187126527       -0.1098760492
 C          6.1351646488        0.8235613215        1.1242846497
 C          6.7185787950        2.0287687919        1.4833038381
 C          6.6817924306        3.1016665936        0.6060342285
 C          6.0661422045        2.9794199270       -0.6309001819
 C          5.4819165107        1.7771778811       -0.9960391243
 H          4.9960611313        1.6412219602       -1.9479881964
 H          6.0389025012        3.8160051433       -1.3105150095
 H          7.1355638321        4.0388611411        0.8873666331
 H          7.1977640250        2.1258654661        2.4442588434
 H          6.1351533780       -0.0357218297        1.7759099634
 H          2.9325964366       -0.8191281972       -1.8920814729
 H          3.3895309343        0.6749032096        1.3776132010
 H          1.6185492278        0.6608286158        3.1038973591
 H         -0.5465384905       -0.4311815471        2.6449373659
 C         -1.3550933771       -1.6824436311        0.4331293805
 H         -1.7029891575       -2.1216940999        1.3781937569
 C         -1.3559039906       -2.7587487738       -0.6315712745
 C         -0.7264657480       -4.0860776464       -0.3345745424
 C         -2.2163731644       -3.9709694507       -0.4464359542
 H         -2.7031076995       -4.3942136961       -1.3123591459
 H         -2.8031380394       -4.0337714100        0.4582356173
 H         -0.1881784844       -4.5913654417       -1.1221998873
 H         -0.2990925243       -4.2252614092        0.6470535689
 H         -1.2654989833       -2.3674141615       -1.6378654727
 O         -3.4799713542       -0.9203397041        2.1552642289
