  62
        -98.95003490
 C          1.9073315530        1.0365979119        0.0271213729
 C          1.3380953141        1.8215258211       -1.0058219197
 C          0.2654394097        2.7371221996       -0.5989195465
 C         -0.0848673912        2.8224467712        0.6973894274
 C         -1.1161865221        3.7507731540        1.2801961345
 C         -2.5592640499        3.2352593456        1.1971674666
 C         -3.1736291970        3.2523171511       -0.2025221150
 H         -3.0486827270        4.2409874434       -0.6454144815
 H         -4.2451558990        3.0787727528       -0.0873109068
 C         -2.6027120346        2.1869167292       -1.1476097461
 H         -3.4159609276        1.6785071985       -1.6715600970
 H         -2.0853448613        1.4186485139       -0.5689086160
 C         -1.6466066865        2.7160464716       -2.2166499406
 H         -2.1919127898        3.3548126800       -2.9158222333
 H         -1.2668054376        1.8534767529       -2.7718284309
 C         -0.4492282721        3.5043399617       -1.6689616514
 H         -0.7787475085        4.4726495786       -1.2912770263
 H          0.2554856663        3.6683622860       -2.4882644465
 H         -3.1678350754        3.8692280884        1.8458363788
 H         -2.5950819897        2.2175235006        1.5920344880
 H         -0.8566812660        3.8769199110        2.3335121278
 H         -1.0486490726        4.7215808118        0.7880402892
 O          0.5084298085        2.0739780354        1.6642091936
 C          1.4807228627        1.1315806365        1.3515435567
 O          1.8759479187        0.4679802786        2.3280142797
 H          0.7822088691       -0.9919613916       -1.4512448591
 C          1.2055337607       -1.6957857297       -0.7488273328
 C          2.3812716020       -1.3704225290       -0.0814619992
 C          2.9287214126       -2.2988347789        0.7933240965
 C          2.2938871879       -3.5101206466        1.0094818957
 C          1.1022066249       -3.8116774741        0.3765510826
 C          0.5504343839       -2.8937072601       -0.5116744219
 N         -0.6522137890       -3.1796013769       -1.1804775860
 S         -1.8616422191       -2.0408816856       -1.3578682159
 O         -2.9646633223       -2.7810057393       -1.9306968190
 O         -1.3805992483       -0.9202352230       -2.1212363711
 C         -2.2966214949       -1.5374142612        0.2974732756
 C         -3.4573816708       -2.0290918549        0.8623921147
 C         -3.7820127305       -1.6632047019        2.1587261530
 C         -2.9375939651       -0.8262643516        2.8727776887
 C         -1.7720973126       -0.3459697952        2.2954997218
 C         -1.4499649235       -0.6988159412        0.9943337512
 H         -0.5504071815       -0.3316261643        0.5244617428
 H         -1.1000235556        0.2971442404        2.8434022450
 H         -3.1857598844       -0.5435694405        3.8836599424
 H         -4.6887124413       -2.0331053208        2.6095508476
 H         -4.0826937482       -2.6774600773        0.2703049220
 H         -1.0507293289       -4.0786319318       -0.9509519680
 H          0.6013365144       -4.7496382918        0.5621459376
 H          2.7267969438       -4.2238085479        1.6937704998
 H          3.8441459456       -2.0712540607        1.3134587917
 C          2.9608137701        0.0011880491       -0.3317981336
 H          3.1203765783        0.1123690185       -1.4144918010
 C          4.2662610151        0.2632630347        0.3860835747
 C          5.5480907905       -0.2686346616       -0.1795956463
 C          5.2590631245        1.2007335300       -0.2304054451
 H          5.8158873960        1.8604937176        0.4179003567
 H          5.0025186306        1.6407679178       -1.1832352514
 H          5.4924250032       -0.8277831176       -1.1014294421
 H          6.3083002019       -0.6174042499        0.5026973350
 H          4.1548687991        0.2945554942        1.4635816143
 O          1.7171334058        1.7659232424       -2.2067110959
