  62
        -98.94541949
 C          2.5944838497        0.0465700559       -0.5094899355
 C          2.4994147778        0.7695517475        0.7040807253
 C          2.0753640176        2.1684535803        0.5808610474
 C          1.7837139260        2.6746847741       -0.6307123730
 C          1.2963058057        4.0696887369       -0.9126801347
 C         -0.2149706259        4.2405805527       -0.7016768002
 C         -0.6670002930        4.3023911368        0.7584079472
 H         -0.0511210338        5.0208983898        1.3009080779
 H         -1.6902990883        4.6831466032        0.7576820960
 C         -0.6490758881        2.9493621479        1.4834214741
 H         -1.5690288275        2.8389459863        2.0632870854
 H         -0.6399400659        2.1419471173        0.7471947746
 C          0.5140704177        2.7601604828        2.4575618561
 H          0.4657562179        1.7418455468        2.8520216354
 H          0.4061375077        3.4541230219        3.2949920019
 C          1.9036559758        2.9612903070        1.8416745229
 H          2.0816830994        4.0193582547        1.6503183382
 H          2.6472287983        2.6035457573        2.5586075782
 H         -0.5093899092        5.1712188507       -1.1929955742
 H         -0.7312912905        3.4174455404       -1.2028191426
 H          1.8380934463        4.7845986965       -0.2924477091
 H          1.5248949927        4.2735877315       -1.9609928706
 O          1.9128960050        1.9541805082       -1.7775332937
 C          2.2858112590        0.6212106451       -1.7411622292
 O          2.3182561806        0.0642542441       -2.8602805871
 H          0.2959525642       -0.9080217369       -0.5989105957
 C          0.4888132909       -1.6929063281        0.1174454066
 C          1.7934632421       -2.1274082032        0.3148218496
 C          2.0187288540       -3.1568426043        1.2183084843
 C          0.9597108682       -3.7147580544        1.9155270387
 C         -0.3327021928       -3.2581616226        1.7365978449
 C         -0.5683266683       -2.2258564900        0.8330368366
 N         -1.8570851118       -1.6894444868        0.6750531131
 S         -2.2692803635       -0.8172482429       -0.7041026676
 O         -2.0904923661       -1.6361764013       -1.8846518655
 O         -1.5908033675        0.4533642139       -0.6927279487
 C         -4.0051965812       -0.5694672380       -0.3861346976
 C         -4.9296964371       -1.4479022357       -0.9186460808
 C         -6.2733714722       -1.2605290350       -0.6343097533
 C         -6.6668261821       -0.2055716374        0.1753169022
 C         -5.7273343973        0.6691263495        0.7010124379
 C         -4.3825558961        0.4877769645        0.4197859675
 H         -3.6154914729        1.1445970438        0.7966621760
 H         -6.0368947302        1.4903451233        1.3269721348
 H         -7.7128137181       -0.0621412070        0.3956789121
 H         -7.0063619619       -1.9361978963       -1.0446388735
 H         -4.5778905605       -2.2465545637       -1.5517980464
 H         -2.5950783082       -2.3185405478        0.9582877192
 H         -1.1512997798       -3.6837521814        2.2962288805
 H          1.1464927642       -4.5145863512        2.6160642517
 H          3.0212839579       -3.5170206101        1.3820127325
 C          2.8864177951       -1.4427857137       -0.4744019743
 H          2.8239753499       -1.7918901710       -1.5166396557
 C          4.2780564529       -1.7176404769        0.0542746303
 C          5.0366457302       -2.9248727238       -0.4067669589
 C          5.4460740357       -1.5602724071       -0.8706488389
 H          6.3576677049       -1.1323059483       -0.4818576867
 H          5.2327760648       -1.2796723395       -1.8922564828
 H          5.6730207675       -3.4353225322        0.3002648511
 H          4.5542543970       -3.5765409313       -1.1198543981
 H          4.4027882614       -1.3910919007        1.0799594503
 O          2.7491091738        0.2736735564        1.8340586061
