  62
        -98.94357763
 C         -2.5544884801       -0.0156063606       -0.1289704878
 C         -2.4416996730       -1.1641696434       -0.9514910475
 C         -1.9468875518       -2.3825727869       -0.3036329139
 C         -1.6262552798       -2.3573874448        1.0023248635
 C         -1.0916596427       -3.5100884834        1.8077602275
 C          0.4281394038       -3.6824048437        1.6795143544
 C          0.8991579696       -4.2832728271        0.3544159678
 H          1.9413974898       -4.5797467219        0.4879000001
 H          0.3261855497       -5.1861423382        0.1385929399
 C          0.8140645016       -3.3190103054       -0.8367678943
 H          0.7407913584       -2.2905298070       -0.4732068694
 H          1.7374894025       -3.3719627419       -1.4193524927
 C         -0.3393597028       -3.5912717877       -1.8031018057
 H         -0.1837255111       -4.5533674786       -2.2976680063
 H         -0.3240392900       -2.8105811384       -2.5685215036
 C         -1.7304173768       -3.5967223850       -1.1559636744
 H         -2.4774961436       -3.5801638185       -1.9537983418
 H         -1.8667643928       -4.5032537522       -0.5661914272
 H          0.8991804986       -2.7058154848        1.8190030567
 H          0.7552113799       -4.3364735680        2.4913130180
 H         -1.3293654793       -3.2965572846        2.8520923830
 H         -1.5941144288       -4.4327340832        1.5156515601
 O         -1.7685114750       -1.2442435478        1.7655083369
 C         -2.1706614634       -0.0366898666        1.2141155624
 O         -2.1647951704        0.9089546385        2.0250460024
 O         -2.7345058969       -1.1671358678       -2.1789830217
 C         -2.9094065059        1.3019891834       -0.8004705449
 C         -1.8395249138        2.3038921140       -0.4434530739
 C         -2.0763921890        3.5435358670        0.1326269801
 C         -1.0144116699        4.3492830962        0.5088116525
 C          0.2922180705        3.9291776644        0.3451569161
 C          0.5382921897        2.6939647854       -0.2459269845
 C         -0.5239995371        1.9151748357       -0.6663362086
 H         -0.3249580489        0.9573009374       -1.1267807009
 N          1.8498351631        2.2204965270       -0.4330071940
 S          2.0894918266        0.5473921254       -0.3774541814
 O          1.8075985379        0.0092891960       -1.6852256764
 O          1.3759044978       -0.0396317671        0.7337244025
 C          3.8466448169        0.4891290123       -0.0802848046
 C          4.3115572514        0.2807303571        1.2041112424
 C          5.6794153888        0.2698369568        1.4289220907
 C          6.5538762282        0.4699345786        0.3714320881
 C          6.0722977985        0.6770076074       -0.9128865394
 C          4.7060590535        0.6873378953       -1.1445159864
 H          4.2840239372        0.8342057299       -2.1249283130
 H          6.7552125306        0.8292955886       -1.7329416106
 H          7.6175662761        0.4616022880        0.5493118238
 H          6.0556949642        0.1055563002        2.4257382401
 H          3.5930067495        0.1235017828        1.9928911048
 H          2.5292107418        2.7156727156        0.1283989943
 H          1.1154632739        4.5432538641        0.6773530460
 H         -1.2094886070        5.3082518068        0.9646844849
 H         -3.0879071594        3.8648674956        0.3195805730
 H         -2.8253939986        1.0844497411       -1.8795394866
 C         -4.3277028089        1.7964240862       -0.5701789180
 C         -5.4292811146        0.8388002999       -0.2292682951
 C         -4.9609971468        1.8343716528        0.7870577191
 H         -5.6100249972        2.6651648989        1.0229678233
 H         -4.3731042719        1.4854939831        1.6207115677
 H         -6.3959428645        0.9825768146       -0.6882134600
 H         -5.1600799393       -0.1982944899       -0.0888022243
 H         -4.5883349703        2.6025190911       -1.2495962789
