  62
        -98.93852415
 C         -2.3408401115       -1.2388058047        0.2509683521
 C         -2.3748130802       -0.0100257801       -0.4478816360
 C         -3.3641020691        0.9830192989        0.0135763182
 C         -4.1657204891        0.6907494333        1.0542139184
 C         -5.2251988292        1.5105445875        1.7608053012
 C         -5.7826993029        2.7827208929        1.1275743415
 C         -6.6060401030        2.5590232280       -0.1402473852
 H         -7.5344382762        2.0514103108        0.1331591089
 H         -6.8696280597        3.5356459998       -0.5520452878
 C         -5.9298367729        1.7276936949       -1.2275206654
 H         -6.6230120504        1.6518052446       -2.0696471926
 H         -5.7573553229        0.7138565444       -0.8607519014
 C         -4.6140367270        2.2925149828       -1.7595401088
 H         -4.3299316944        1.6984771163       -2.6323531922
 H         -4.7620426270        3.3222224029       -2.0907443041
 C         -3.4319733770        2.2594484897       -0.7746276548
 H         -2.5056056057        2.3121032450       -1.3546296506
 H         -3.4449880047        3.1198421366       -0.1095419817
 H         -4.9826056171        3.4932709925        0.9416810050
 H         -6.4417123521        3.2368636111        1.8725842465
 H         -6.0502511764        0.8193238266        1.9600550109
 H         -4.7977469842        1.7688844479        2.7360224082
 O         -4.0816935282       -0.5038407674        1.7100876517
 C         -3.1817620656       -1.4833591733        1.3379898192
 O         -3.2285499483       -2.5143030454        2.0378385817
 H          0.5289819585       -1.0804660244       -1.6572621549
 C          0.8572651275       -1.2290118388       -0.6409512414
 C          0.0276587591       -1.8719329805        0.2639150874
 C          0.4607030290       -2.0174928744        1.5790132454
 C          1.6949281273       -1.5357119218        1.9723346553
 C          2.5185749361       -0.8887767464        1.0668607042
 C          2.0872591308       -0.7222155060       -0.2415493633
 N          2.9085316242       -0.0524148413       -1.1652409930
 S          3.5871572701        1.4116868359       -0.7012647376
 O          2.7816573484        2.0915306641        0.2868349199
 O          3.8307854867        2.1248061839       -1.9364663853
 C          5.1534860856        0.9405702446        0.0056219262
 C          5.9967686040        0.1476914661       -0.7481306602
 C          7.2234422654       -0.2179902132       -0.2175355491
 C          7.5860339267        0.2151281160        1.0492616001
 C          6.7301412057        1.0137679425        1.7919589089
 C          5.5010080317        1.3823060421        1.2671293119
 H          4.8006983796        1.9970565411        1.8102501633
 H          7.0135040663        1.3503323717        2.7763449856
 H          8.5413419282       -0.0710203654        1.4601319424
 H          7.8917870448       -0.8389339244       -0.7920189362
 H          5.6786923880       -0.1648069065       -1.7286116071
 H          2.4905361089        0.0290616349       -2.0814688516
 H          3.4767257758       -0.4991846461        1.3696969144
 H          2.0191189092       -1.6603295929        2.9943987890
 H         -0.1932416541       -2.5005950100        2.2919596838
 C         -1.3568305912       -2.3408550060       -0.1118000954
 H         -1.6126328876       -3.1922590663        0.5326033105
 C         -1.4890825809       -2.7702072737       -1.5579974391
 C         -0.8592279586       -4.0564276694       -1.9983566870
 C         -2.3501808181       -3.9489759427       -1.8938573614
 H         -2.9314141937       -3.9187358532       -2.8033498498
 H         -2.8444339669       -4.4555077910       -1.0776415955
 H         -0.4148736592       -4.1042338805       -2.9807148967
 H         -0.3395598029       -4.6362405419       -1.2507093555
 H         -1.4955473168       -1.9423995456       -2.2556926619
 O         -1.6213047984        0.2648225888       -1.4195503357
