  62
        -98.94043771
 C         -2.4460372535       -1.0647306055        0.0026708508
 C         -2.4493668071        0.3278806843        0.2563594686
 C         -3.7538685513        0.9059250584        0.6048657220
 C         -4.8368001327        0.1121120459        0.6930269588
 C         -6.2284302261        0.5494148982        1.0624664197
 C         -7.0402624166        1.1068931979       -0.1147161844
 C         -6.6130120278        2.4923580332       -0.6006650819
 H         -7.3939542829        2.8506225537       -1.2742369050
 H         -6.5739352983        3.1776016610        0.2465815388
 C         -5.2710310857        2.5160523551       -1.3457707440
 H         -5.0074631061        1.5022857594       -1.6562586114
 H         -5.3693614221        3.1130548155       -2.2552695351
 C         -4.1100803736        3.1035303680       -0.5429473423
 H         -4.3018939871        4.1594801195       -0.3394809343
 H         -3.2038205918        3.0375965107       -1.1509500486
 C         -3.8377713815        2.3911056699        0.7885168524
 H         -2.8716097878        2.7323288351        1.1689179863
 H         -4.6098648547        2.6432695452        1.5151664107
 H         -6.9857876471        0.3973336016       -0.9434470991
 H         -8.0827312643        1.1638052348        0.2066496363
 H         -6.7405294719       -0.3360350616        1.4449929622
 H         -6.1793701448        1.2940048125        1.8573345453
 O         -4.7835643476       -1.2281830330        0.4691008812
 C         -3.5984597794       -1.8439541260        0.1009197085
 O         -3.6963801070       -3.0722298560       -0.0962810392
 H          1.4798942781       -1.0006394466       -0.7429393076
 C          1.2063795730       -1.1445301713        0.2882434804
 C         -0.0834099153       -1.5177861042        0.6318457999
 C         -0.3884420590       -1.7032943886        1.9779972291
 C          0.5663262559       -1.4920776482        2.9530775852
 C          1.8455221017       -1.0930756417        2.6075849628
 C          2.1669937724       -0.9245453309        1.2662568697
 N          3.4774597224       -0.5758474119        0.8924818305
 S          3.7444408772        0.4419625946       -0.4273915768
 O          3.0237931697        1.6850212713       -0.2664343480
 O          3.5005903853       -0.2902346493       -1.6440543161
 C          5.4966688934        0.7190658130       -0.2390989443
 C          5.9414212430        1.8728681423        0.3779365104
 C          7.3045421244        2.0625762293        0.5432329702
 C          8.1948330279        1.0991136937        0.0936778573
 C          7.7335641145       -0.0534523932       -0.5250497066
 C          6.3721493616       -0.2484946952       -0.6945518582
 H          5.9677568898       -1.1229644198       -1.1768281974
 H          8.4289837432       -0.7987148130       -0.8760516575
 H          9.2549999035        1.2489963962        0.2236642609
 H          7.6660064132        2.9592531082        1.0203899034
 H          5.2128425924        2.5982925025        0.7031471599
 H          4.0310871583       -0.2729374570        1.6830109574
 H          2.5888917855       -0.9174780388        3.3705049178
 H          0.3113991522       -1.6308717179        3.9931572791
 H         -1.3917273812       -2.0050104767        2.2486374250
 C         -1.1573812170       -1.7559960680       -0.4017611925
 H         -1.3812258960       -2.8332933043       -0.4204394579
 C         -0.7539671248       -1.3202330213       -1.7953575148
 C          0.0074611870       -2.2510509463       -2.6886889344
 C         -1.4298679942       -1.9421328008       -2.9787866584
 H         -1.6645256560       -1.3161602580       -3.8266932221
 H         -2.1678672854       -2.7061204557       -2.7804491558
 H          0.7687419100       -1.8360178559       -3.3324241374
 H          0.2458327560       -3.2299184106       -2.3006339858
 H         -0.5242332660       -0.2610229977       -1.8502095116
 O         -1.4201432270        1.0514060854        0.2004986265
