  62
        -98.94126289
 C          1.7038412503        1.4326169503       -0.2381328204
 C          2.7439629003        0.7302863501        0.4100306294
 C          3.1822577200       -0.5239533799       -0.2211814806
 C          2.5862754298       -0.9356196699       -1.3536697105
 C          2.9029960495       -2.1471202500       -2.1949173005
 C          3.1593295495       -3.4721324100       -1.4656552205
 C          2.3472031496       -3.6733858898       -0.1778781304
 H          1.5498619997       -2.9296746697       -0.1075022203
 H          1.8648379295       -4.6527867998       -0.2109718903
 C          3.2111695498       -3.6221531699        1.0846652995
 H          4.1285117597       -4.1889196600        0.9077275394
 H          2.6699359999       -4.1163517998        1.8955838896
 C          3.5752725101       -2.2212198399        1.5729536994
 H          4.2547542402       -2.3250542700        2.4229287293
 H          2.6741729302       -1.7205770798        1.9402798595
 C          4.2270692200       -1.3019821301        0.5259135593
 H          4.8345293402       -0.5633982401        1.0564906592
 H          4.8708444999       -1.8646056302       -0.1456790208
 H          2.9226751292       -4.2702861700       -2.1715133704
 H          4.2199181695       -3.5626001901       -1.2331942306
 H          2.0433037894       -2.2598615999       -2.8597305604
 H          3.7692267895       -1.9097482301       -2.8201869406
 O          1.5846498898       -0.2284783098       -1.9441380204
 C          1.0784766201        0.9259897103       -1.3766314603
 O          0.1007771800        1.4090702204       -1.9803285202
 O          3.2841085605        1.1339071501        1.4777604093
 C          1.1326648006        2.6832879804        0.4115733996
 C         -0.3005849594        2.3864399806        0.7761627698
 C         -1.3845927794        3.1740993507        0.4132729600
 C         -2.6785687794        2.7511833709        0.6702529502
 C         -2.9185786795        1.5249566009        1.2640285803
 C         -1.8384090695        0.7463181608        1.6559271801
 C         -0.5479151695        1.1940113806        1.4461354899
 H          0.2859391905        0.5704008405        1.7449864898
 N         -2.0765191196       -0.5689017391        2.1591353802
 S         -1.8311327599       -1.6882807192        0.9114495202
 O         -2.0977856900       -2.9874240992        1.4930003703
 O         -0.5236040200       -1.5397477894        0.3092224500
 C         -3.1176931301       -1.2420593391       -0.2276729096
 C         -2.8455264501       -0.3594946191       -1.2540408897
 C         -3.8822208902        0.0236868810       -2.0915879096
 C         -5.1595501602       -0.4754115489       -1.8885713493
 C         -5.4139988802       -1.3619192488       -0.8523756593
 C         -4.3847699801       -1.7477825089       -0.0095013294
 H         -4.5296658501       -2.4336119388        0.8089397706
 H         -6.4083816602       -1.7487461986       -0.6978959991
 H         -5.9609034603       -0.1703993388       -2.5429880592
 H         -3.6788060202        0.7156050509       -2.8931038796
 H         -1.8428326101        0.0191088207       -1.3872848599
 H         -1.4525840095       -0.8121351792        2.9183092801
 H         -3.9205166595        1.1601277611        1.4208706804
 H         -3.5105558993        3.3703841410        0.3728980003
 H         -1.2163838693        4.1097421907       -0.0944817601
 H          1.7131429407        2.8295614803        1.3343877695
 C          1.3006734206        3.8949968603       -0.4778444205
 C          1.3485399409        5.2672860803        0.1235294895
 C          2.5932409507        4.6516823501       -0.4391540707
 H          2.9904671206        5.0398961800       -1.3648262107
 H          3.3507786608        4.3043143401        0.2482108692
 H          0.8931612609        6.0832235504       -0.4167082305
 H          1.2633277511        5.3454229804        1.1967633195
 H          0.8210768104        3.7719496803       -1.4421677004
