  62
        -98.94436828
 C          1.9686548811        1.1377483608       -0.1906892766
 C          2.4107976439       -0.0446547743       -0.8312746365
 C          3.8616864208       -0.2835049407       -0.7993492262
 C          4.6661294689        0.6122690252       -0.1987605610
 C          6.1521530976        0.4656253083       -0.0486963357
 C          6.5109385137       -0.2391323191        1.2671019153
 C          5.7247894335       -1.5270141581        1.5127853090
 H          6.0831373468       -1.9525187767        2.4526351846
 H          4.6697370562       -1.2806602272        1.6528659818
 C          5.8544629526       -2.5725731980        0.3964096604
 H          6.0209726910       -3.5515653148        0.8506772579
 H          6.7254853223       -2.3499157854       -0.2209937164
 C          4.6199343003       -2.7012217053       -0.4980054340
 H          3.7286312188       -2.8312806155        0.1213866940
 H          4.7311384705       -3.6046366606       -1.1038065864
 C          4.3693418184       -1.5337200321       -1.4607929995
 H          5.2758785233       -1.3272396930       -2.0335565672
 H          3.5845685300       -1.8419307739       -2.1581339421
 H          6.3103548240        0.4470842888        2.0930546584
 H          7.5800096491       -0.4590724419        1.2601022020
 H          6.5979348834        1.4616909653       -0.0504079640
 H          6.5430595968       -0.0980119787       -0.8935439734
 O          4.2045347068        1.7446788376        0.3907899396
 C          2.8496480094        2.0301852692        0.4203788446
 O          2.5588239742        3.0894042162        1.0119259622
 O          1.6401156219       -0.8602331523       -1.4017092779
 C          0.4876782237        1.4762380462       -0.1549669198
 C         -0.2638090253        0.3565627950        0.5223322631
 C          0.0952660295        0.0143064519        1.8246079472
 C         -0.5333500478       -1.0246930154        2.4812932860
 C         -1.5408640794       -1.7399027827        1.8566990552
 C         -1.9093262228       -1.4057086611        0.5596052151
 C         -1.2773119381       -0.3562391181       -0.0965672196
 H         -1.5697857407       -0.1344972688       -1.1083740348
 N         -2.9091020108       -2.1350917204       -0.1017776030
 S         -4.0865781962       -1.3778082883       -1.0114461580
 O         -5.0837652885       -2.4018149181       -1.2310746497
 O         -3.5134358253       -0.7813245816       -2.1899796087
 C         -4.7424993728       -0.1199617455        0.0691098996
 C         -5.6940963586       -0.4896901254        0.9999909093
 C         -6.1713299869        0.4617645409        1.8862786570
 C         -5.6844877443        1.7592563064        1.8327475698
 C         -4.7292733223        2.1140197255        0.8929533518
 C         -4.2503972810        1.1674233954        0.0006527903
 H         -3.5119026207        1.4083312133       -0.7457871032
 H         -4.3534282921        3.1239357773        0.8506708499
 H         -6.0533519716        2.4997435449        2.5248554538
 H         -6.9180370172        0.1902214326        2.6149837528
 H         -6.0538225943       -1.5058663440        0.9996070333
 H         -3.3041387626       -2.8892099497        0.4403858944
 H         -2.0269743293       -2.5595164367        2.3637565500
 H         -0.2392040339       -1.2816314359        3.4878217506
 H          0.8866841097        0.5714173305        2.3082567159
 H          0.3993303832        2.3767431336        0.4698152591
 C         -0.0101474606        1.8006633804       -1.5470671669
 C         -1.1735957867        2.7262089954       -1.7315850165
 C          0.2089876013        3.1783486896       -2.0928929732
 H          0.4637978686        3.2845933715       -3.1366890537
 H          0.6982533084        3.8945788994       -1.4486311477
 H         -1.8731179444        2.5213965792       -2.5288999610
 H         -1.6198277432        3.1476741310       -0.8432201985
 H          0.0974933962        0.9722074306       -2.2380192875
