  62
        -98.93782048
 C          1.0516335167        1.6620738100        0.1378760254
 C          1.4763118332        0.6019799392        0.9751975377
 C          2.6761361380       -0.1484503686        0.5589611585
 C          3.3100036528        0.2173134154       -0.5698092458
 C          4.5532010535       -0.3716425104       -1.1864188700
 C          5.7204086626       -0.6429861758       -0.2237091940
 C          5.9903788880       -2.1315852945        0.0005095235
 H          5.8792949557       -2.6534577250       -0.9521295817
 H          7.0274787957       -2.2545767928        0.3202052036
 C          5.1014995835       -2.7980890591        1.0492709541
 H          5.2968331764       -3.8724251093        1.0143251343
 H          5.3904642681       -2.4487713871        2.0429499420
 C          3.5988737394       -2.5675027668        0.8727290990
 H          3.3332309240       -2.6158197939       -0.1823387481
 H          3.0739551448       -3.3855988209        1.3708271981
 C          3.0980687146       -1.2531268878        1.4905191216
 H          2.2127060823       -1.4517039552        2.1034649391
 H          3.8503217305       -0.8569675025        2.1798183527
 H          6.6191996323       -0.1977781669       -0.6532417737
 H          5.5381957133       -0.1454174573        0.7280140451
 H          4.2857057988       -1.2898743057       -1.7140472454
 H          4.8595699690        0.3480176069       -1.9486253058
 O          2.8582277683        1.2347817311       -1.3534838243
 C          1.7336505949        1.9788319830       -1.0371691355
 O          1.4762430927        2.8690154489       -1.8679113174
 O          0.8773276143        0.2901757704        2.0413453284
 C         -0.1807592154        2.4416473743        0.5684185461
 C         -1.3774138196        2.0042112466       -0.2421094776
 C         -1.6082196821        2.4680752742       -1.5331280156
 C         -2.7052383649        2.0241687723       -2.2484435737
 C         -3.5821942791        1.1032196633       -1.7024995155
 C         -3.3579964491        0.6291667243       -0.4157653380
 C         -2.2664701657        1.0900962856        0.3072939918
 H         -2.1105185329        0.7213936615        1.3100930781
 N         -4.2296214043       -0.3065472620        0.1671854436
 S         -3.5866880930       -1.6249853124        0.9758172901
 O         -4.6686908214       -2.5854494170        1.0089171072
 O         -3.0663163094       -1.2172374225        2.2543767191
 C         -2.2905433808       -2.2087161970       -0.0998059287
 C         -0.9758414875       -1.8647274955        0.1361420136
 C         -0.0087947827       -2.2661440483       -0.7726570029
 C         -0.3677051901       -3.0020438768       -1.8902409504
 C         -1.6931715435       -3.3483033481       -2.1077193445
 C         -2.6652591895       -2.9433662633       -1.2089290008
 H         -3.7050787671       -3.1978382342       -1.3362994721
 H         -1.9687816455       -3.9262787647       -2.9750338015
 H          0.3907340510       -3.3085078618       -2.5933696033
 H          1.0185871780       -1.9879250576       -0.5970031961
 H         -0.7159757226       -1.2954399782        1.0147062837
 H         -4.9888066888       -0.5933181149       -0.4342157698
 H         -4.4350234344        0.7550972774       -2.2650744064
 H         -2.8750238505        2.3935682590       -3.2483775448
 H         -0.9099329042        3.1575350437       -1.9793444397
 H         -0.3606713124        2.1401499376        1.6095022611
 C          0.0243311521        3.9426590585        0.5345577927
 C         -0.9143317233        4.8185256946        1.3068840453
 C          0.5001023929        4.6433408662        1.7701024610
 H          1.1863101402        5.4698645924        1.6614831982
 H          0.6779942683        4.0422141664        2.6502111222
 H         -1.2026024813        5.7672717536        0.8812671347
 H         -1.6961812908        4.3340830093        1.8727277992
 H          0.3940014006        4.3107803106       -0.4132219538
