  62
        -98.94651121
 C          1.1845751458        1.1380035201        0.5710707978
 C          1.6580310741        0.6080641895       -0.6542865214
 C          2.4587438256       -0.6192098245       -0.5440875871
 C          2.5911297189       -1.2300333645        0.6463077829
 C          3.3554791208       -2.4981205149        0.9131093609
 C          4.8589083564       -2.2807936814        1.1354616472
 C          5.6577229226       -1.9204532649       -0.1179870107
 H          6.7147387510       -2.0120799443        0.1398146060
 H          5.4511512731       -2.6495022818       -0.9020917431
 C          5.4009830825       -0.5026041858       -0.6480322319
 H          6.3545895384       -0.0227767586       -0.8796411149
 H          4.9235252954        0.0965116982        0.1307722588
 C          4.5446797737       -0.4435432114       -1.9133419209
 H          4.3925554416        0.6066568588       -2.1746540666
 H          5.0776859414       -0.9213818453       -2.7383100437
 C          3.1668771760       -1.1043899896       -1.7728954046
 H          2.5613765428       -0.8247154268       -2.6379488666
 H          3.2777523350       -2.1881679437       -1.7531031087
 H          5.2655292322       -3.2086464980        1.5444750760
 H          4.9918045907       -1.5004755434        1.8884866371
 H          2.9344486385       -2.9307811863        1.8230877138
 H          3.2082892672       -3.2005625491        0.0925352860
 O          2.0038561678       -0.7578142894        1.7783330079
 C          1.3236818913        0.4468483012        1.7754365024
 O          0.8797013178        0.7866361236        2.8929093526
 H         -1.4679276246        0.9884179751        1.7006715297
 C         -1.8065089732        1.4019169663        0.7587236895
 C         -0.9494394511        2.2296439948        0.0421611942
 C         -1.3864174077        2.7491307913       -1.1680295149
 C         -2.6494463631        2.4398822352       -1.6463406744
 C         -3.4990249169        1.6148919237       -0.9318459275
 C         -3.0691646307        1.0935672436        0.2820142622
 N         -3.9193786620        0.2281497846        1.0102681736
 S         -4.2106426638       -1.2442923685        0.2642054301
 O         -5.0630552502       -1.0255704462       -0.8758884261
 O         -4.7321921313       -2.1110293667        1.2961692673
 C         -2.6066471663       -1.8106406833       -0.2720814668
 C         -2.1524558295       -1.4640022645       -1.5285938620
 C         -0.8849283123       -1.8667048631       -1.9155773489
 C         -0.0996194276       -2.6052707141       -1.0449392063
 C         -0.5654660051       -2.9362095247        0.2179086548
 C         -1.8293825292       -2.5304227337        0.6130076482
 H         -2.2309595646       -2.7741881270        1.5839395451
 H          0.0531386072       -3.5035666327        0.8949565231
 H          0.8819872929       -2.9244382920       -1.3545567549
 H         -0.5103158377       -1.5978560012       -2.8899143766
 H         -2.7963171574       -0.8973669033       -2.1808920101
 H         -3.5830978892        0.0564836908        1.9482271340
 H         -4.4780368084        1.3514179636       -1.2982998668
 H         -2.9757850284        2.8469009646       -2.5912717021
 H         -0.7340871448        3.3839211172       -1.7440311541
 C          0.4275802407        2.4572091792        0.6154373138
 H          0.3070896908        2.6976822001        1.6812316789
 C          1.2001619659        3.5742653263       -0.0504896477
 C          0.8423243596        4.9973194184        0.2520902720
 C          2.1209248053        4.4179929095        0.7766658099
 H          3.0531957028        4.7436980224        0.3401529670
 H          2.1879746650        4.1993235208        1.8328029976
 H          0.0397150292        5.1719138342        0.9528076424
 H          0.8969982254        5.7243623302       -0.5436478998
 H          1.5197071203        3.3319337493       -1.0560367542
 O          1.4417460830        1.1256265498       -1.7785555812
