  62
        -98.94874426
 C         -2.0433730307       -1.0182921030       -0.1845471033
 C         -1.1689518682       -1.7509048634       -1.0203619700
 C         -0.2571370320       -2.6757669601       -0.3415058995
 C         -0.2892090075       -2.7762567398        0.9999799927
 C          0.5849652397       -3.6689170967        1.8385463357
 C          1.9643858675       -3.0661499356        2.1398763384
 C          2.9458145672       -3.0739999244        0.9667637852
 H          3.9345330514       -2.8577053037        1.3761481493
 H          2.9830291481       -4.0726878971        0.5296727460
 C          2.6295507100       -2.0386031752       -0.1214239792
 H          3.5481275794       -1.5212813300       -0.4090614238
 H          1.9563931854       -1.2817202205        0.2891297933
 C          2.0200463243       -2.6173187050       -1.3981918955
 H          1.7880062295       -1.7863071179       -2.0689096162
 H          2.7522905455       -3.2583396971       -1.8941870474
 C          0.7351192763       -3.4256902618       -1.1793511065
 H          0.2744079168       -3.6048940249       -2.1541940789
 H          0.9682176500       -4.3861947172       -0.7203422856
 H          2.4013604645       -3.6416035810        2.9597248542
 H          1.8252682444       -2.0385928144        2.4870288550
 H          0.0596286162       -3.8188639199        2.7842918217
 H          0.7051600297       -4.6362278186        1.3491887800
 O         -1.1598596199       -2.0708709604        1.7685480470
 C         -2.0212662085       -1.1433403409        1.2049851017
 O         -2.7212481329       -0.5228016737        2.0296847507
 H         -0.4668035463        0.8712226666       -0.4236357225
 C         -1.1697932339        1.6544231273       -0.1834094881
 C         -2.5289292902        1.3991600630       -0.3188280344
 C         -3.4276456920        2.4089051252       -0.0029454089
 C         -2.9686249633        3.6266219986        0.4708997774
 C         -1.6177167040        3.8553137588        0.6533622688
 C         -0.7073173733        2.8550698895        0.3257561863
 N          0.6729099419        3.0603803933        0.4831053904
 S          1.7196950889        1.8699667238        1.0328264598
 O          1.0167102367        0.6798755820        1.4462380511
 O          2.5382678991        2.5097445034        2.0431544069
 C          2.7543527294        1.5136555477       -0.3764905633
 C          2.1974511868        1.3583274264       -1.6298529833
 C          3.0244235010        1.0437913098       -2.6972336364
 C          4.3877048454        0.8915184532       -2.4979590166
 C          4.9342810654        1.0576577070       -1.2349263357
 C          4.1119759756        1.3698069807       -0.1640480754
 H          4.4933150911        1.5104284154        0.8341681397
 H          5.9949673313        0.9424311332       -1.0799511198
 H          5.0251257646        0.6435065654       -3.3317652456
 H          2.5966451061        0.9161376237       -3.6789533703
 H          1.1349631680        1.4809133538       -1.7653777049
 H          0.9127942107        3.9461349505        0.9039394555
 H         -1.2655294366        4.7956641484        1.0498173198
 H         -3.6759844782        4.4031964135        0.7199321525
 H         -4.4862261749        2.2394981435       -0.1136921876
 C         -2.9430232897        0.0321747805       -0.8095798437
 H         -2.7455757185       -0.0204517586       -1.8914986137
 C         -4.4041251540       -0.2793818696       -0.5661398689
 C         -5.4425685589        0.1238662759       -1.5691765997
 C         -5.0721107043       -1.3194135941       -1.4134739904
 H         -5.7781296767       -1.9890522089       -0.9459314855
 H         -4.4779162023       -1.7828935117       -2.1874796740
 H         -6.4087896575        0.4445206100       -1.2098180889
 H         -5.1076805377        0.6378716007       -2.4574191446
 H         -4.6644448868       -0.2477483881        0.4858887974
 O         -1.1468928693       -1.6293370062       -2.2762422337
