  62
        -98.93273977
 C         -2.2809224820       -1.2469135092        0.1140941242
 C         -3.2190952321       -0.5809500332        0.9418753499
 C         -4.1243642397        0.3640933329        0.2749410868
 C         -4.0070312880        0.5721539225       -1.0486723799
 C         -4.8779073708        1.4540485456       -1.9041903582
 C         -4.8188758531        2.9653994714       -1.6100030294
 C         -5.8986436100        3.4643067626       -0.6416775568
 H         -6.2676982148        4.4294431926       -0.9944338017
 H         -6.7438618430        2.7757083062       -0.6728447501
 C         -5.4534992580        3.6612075309        0.8106375860
 H         -4.8889921313        4.5933636042        0.8880098658
 H         -6.3505302401        3.7689274036        1.4242228441
 C         -4.5834453973        2.5498589824        1.3982061885
 H         -3.5687205264        2.6285120209        0.9997417500
 H         -4.5036038683        2.7119803611        2.4751414501
 C         -5.0969506923        1.1214797691        1.1315337862
 H         -6.0801830811        1.1472972913        0.6639971602
 H         -5.1767967676        0.5737310409        2.0727784305
 H         -3.8266292083        3.2263864198       -1.2426744356
 H         -4.9547249114        3.4776889571       -2.5637684539
 H         -4.5482566834        1.2782477758       -2.9301701606
 H         -5.9114059050        1.1098849816       -1.8218935117
 O         -3.0621177358       -0.0531978046       -1.8009236604
 C         -2.1669427967       -0.9607236694       -1.2473660610
 O         -1.3481070796       -1.4191940709       -2.0637212597
 O         -3.2975637904       -0.7694972042        2.1860077254
 C         -1.3347975692       -2.2328869185        0.7745259720
 C          0.0879915232       -1.9642672577        0.3503909378
 C          0.9166156819       -2.9185969883       -0.2232109152
 C          2.2167583381       -2.5977924925       -0.5740214919
 C          2.7175891832       -1.3269810295       -0.3641292536
 C          1.8989959489       -0.3640716971        0.2121942056
 C          0.6014831699       -0.6913627370        0.5718107147
 H         -0.0361801113        0.0606812443        1.0226998291
 N          2.3963053016        0.9370548073        0.4138777298
 S          3.8352852277        1.1008746660        1.2657726914
 O          4.0118346385        0.0257854947        2.2148444423
 O          3.7989642485        2.4398857797        1.8131663231
 C          5.0954212015        1.0209501400        0.0111305813
 C          6.1109235993        0.0906125885        0.1149389798
 C          7.0887981409        0.0542228170       -0.8669823351
 C          7.0344273487        0.9444597762       -1.9284730975
 C          6.0087592111        1.8740750817       -2.0167374544
 C          5.0287705132        1.9166776081       -1.0380005596
 H          4.2173074438        2.6246278632       -1.0680167665
 H          5.9694664714        2.5644122481       -2.8439494170
 H          7.7957807559        0.9140894113       -2.6918499232
 H          7.8869362180       -0.6674930391       -0.8001977368
 H          6.1082885158       -0.5851462637        0.9552204618
 H          1.7057276977        1.5824789750        0.7691371727
 H          3.7263752960       -1.0720513002       -0.6450275581
 H          2.8471631508       -3.3486736934       -1.0253205048
 H          0.5400623360       -3.9095534848       -0.4149569886
 H         -1.4099120086       -1.9994859285        1.8507334379
 C         -1.7462214550       -3.6900561278        0.6244345023
 C         -3.1761823842       -4.0712896702        0.3873838998
 C         -2.1578146492       -4.2765301866       -0.6915756417
 H         -1.8520790985       -5.2872680911       -0.9192990382
 H         -2.1717342932       -3.6202372616       -1.5471952881
 H         -3.5670690520       -4.9368464689        0.9009786968
 H         -3.8948480248       -3.2734040673        0.2677832828
 H         -1.1846238408       -4.3374956775        1.2911061397
