  62
        -98.93896345
 C          0.7453315582        1.1603172160        0.7998026587
 C          1.1664098779        0.7267194276       -0.4795063275
 C          2.1948654568       -0.3340601221       -0.5070722659
 C          2.5802069498       -0.9144570400        0.6428896670
 C          3.5911365700       -2.0068243024        0.9240406965
 C          4.5644553288       -2.4633887386       -0.1596111002
 C          5.6287392766       -1.4317655680       -0.5351900160
 H          6.3285928215       -1.3378515307        0.2991282203
 H          6.1865686298       -1.8106844588       -1.3942266717
 C          5.1100525384       -0.0323099942       -0.8571222378
 H          4.6155584793        0.3869415851        0.0215668260
 H          5.9737999674        0.6028002481       -1.0720250144
 C          4.1612954578        0.0552119495       -2.0506404650
 H          4.6396027338       -0.3769645173       -2.9316999295
 H          3.9844449648        1.1150621399       -2.2537318012
 C          2.7924340468       -0.6183297077       -1.8550516252
 H          2.0991272928       -0.1967277161       -2.5884155707
 H          2.8536207838       -1.6870909610       -2.0381801442
 H          5.0835360065       -3.3403946939        0.2365184610
 H          4.0227243235       -2.7906128350       -1.0418019122
 H          4.1623019015       -1.6673415146        1.7943801567
 H          3.0123289804       -2.8733312411        1.2598360015
 O          2.0082723155       -0.5798238438        1.8387537303
 C          1.1206905752        0.4739092070        1.9548322959
 O          0.7355539554        0.6910540118        3.1220048387
 H         -2.0650723037        0.4932720274        0.9533118868
 C         -2.2072265310        1.1907535272        0.1396343859
 C         -1.3289455739        2.2583186450        0.0003817601
 C         -1.5376149831        3.1655416103       -1.0297005991
 C         -2.5909544207        2.9897778604       -1.9091020726
 C         -3.4489746994        1.9129038332       -1.7841691616
 C         -3.2541913583        1.0054700804       -0.7480787328
 N         -4.1165266626       -0.0856400640       -0.5905216696
 S         -3.7592161359       -1.3910112182        0.3653912896
 O         -4.7049287236       -2.4034284062       -0.0569859442
 O         -3.8243539830       -1.0228340378        1.7586488213
 C         -2.1115495327       -1.9445905395       -0.0390382203
 C         -1.3373287153       -2.4566353429        0.9823227027
 C         -0.0950499746       -2.9897615940        0.6836254437
 C          0.3547549685       -2.9938151939       -0.6269225674
 C         -0.4266849810       -2.4612496646       -1.6398478645
 C         -1.6752395991       -1.9366832611       -1.3482447548
 H         -2.3009054423       -1.5226412100       -2.1219273239
 H         -0.0676840303       -2.4527906587       -2.6562015506
 H          1.3190445771       -3.4170785772       -0.8581663255
 H          0.5133000071       -3.3947188459        1.4769938724
 H         -1.7182764942       -2.4224452624        1.9912160227
 H         -4.7300511398       -0.2960249700       -1.3618405694
 H         -4.2621033008        1.7704516166       -2.4790036251
 H         -2.7390370987        3.6954172802       -2.7124009772
 H         -0.8583499843        3.9911677915       -1.1623104829
 C         -0.1869457876        2.3460432930        0.9802504984
 H         -0.6056175720        2.2293001725        1.9938758880
 C          0.5251352566        3.6912552215        0.9523428272
 C          1.9224815012        3.8306554368        1.4767209952
 C          1.6530964053        3.9859893687        0.0117300849
 H          1.7165361474        4.9753808776       -0.4170832988
 H          1.9672445509        3.1995991194       -0.6558443729
 H          2.4194861139        2.9331165550        1.8160930223
 H          2.1690015736        4.7090848515        2.0540327015
 H         -0.1530703761        4.5099091145        1.1732899274
 O          0.7319560013        1.1996159327       -1.5593252628
