  62
        -98.94848384
 C         -2.3571127806       -0.6163194814        0.1707093203
 C         -1.5407267109       -0.0106736806       -0.8139520795
 C         -1.6773145816        1.4455735493       -0.9612995089
 C         -2.5343726920        2.1125359486       -0.1688158787
 C         -2.7775836328        3.5929963185       -0.2146275882
 C         -1.8714233732        4.3508545786        0.7638913522
 C         -0.3925953730        3.9770465194        0.6594318721
 H          0.1538055266        4.6183503294        1.3554681323
 H         -0.2489738325        2.9492246994        1.0023230617
 C          0.2046156969        4.1249041703       -0.7469259178
 H         -0.4244170234        4.7783296502       -1.3534680676
 H          1.1826252667        4.6029201908       -0.6587642776
 C          0.4232117177        2.7968525107       -1.4743010483
 H          0.9283528680        2.1034025407       -0.7973925886
 H          1.0888974576        2.9755629913       -2.3232812082
 C         -0.8403931019        2.1146748702       -2.0151496386
 H         -1.4352989023        2.8356656501       -2.5804982684
 H         -0.5242265315        1.3196145606       -2.6967161989
 H         -1.9907062438        5.4211945486        0.5826787026
 H         -2.2053478132        4.1394353980        1.7825266621
 H         -2.6099748830        3.9491100889       -1.2294652180
 H         -3.8193009429        3.7750711678        0.0569170419
 O         -3.2760257417        1.5044326978        0.7929910210
 C         -3.1823539110        0.1390863878        1.0060130305
 O         -3.8798113008       -0.2806565829        1.9525320903
 H         -0.3165921704       -1.0335738610        1.8255535402
 C          0.0343647501       -1.8686989306        1.2359188799
 C         -0.8610228895       -2.5703685307        0.4373364296
 C         -0.3840986389       -3.6410903302       -0.3075965608
 C          0.9573249212       -3.9818729395       -0.2662495709
 C          1.8526836508       -3.2490364093        0.4905048194
 C          1.3842932402       -2.1748067499        1.2386280398
 N          2.2566014598       -1.3687465197        2.0011016902
 S          2.4028026689        0.2374247306        1.5408223308
 O          3.3340795786        0.8159139307        2.4864321010
 O          1.1012582086        0.8486368899        1.4739154910
 C          3.1722668190        0.1788138216       -0.0689496192
 C          4.5162395389        0.4864729423       -0.1652411990
 C          5.1399017189        0.3997564132       -1.3988834291
 C          4.4135620692       -0.0009563468       -2.5104252692
 C          3.0679247094       -0.3116656276       -2.3949239094
 C          2.4342270293       -0.2244811484       -1.1640139594
 H          1.3844695194       -0.4550577090       -1.0628410795
 H          2.4956110996       -0.6236919176       -3.2537772396
 H          4.8977186693       -0.0708570062       -3.4718106792
 H          6.1864745088        0.6425802237       -1.4889592489
 H          5.0373800187        0.7950948323        0.7266819511
 H          3.1818242500       -1.7620399892        2.1097700400
 H          2.9037193910       -3.4963097688        0.4989511494
 H          1.3133699617       -4.8166301091       -0.8505317112
 H         -1.0564836486       -4.1974916703       -0.9394685611
 C         -2.2990534898       -2.1111824515        0.4406533897
 H         -2.6856796398       -2.2292034321        1.4671859396
 C         -3.2010319593       -2.9399899517       -0.4629024707
 C         -4.4054263196       -2.3369955420       -1.1206585105
 C         -3.2271948993       -2.7482392411       -1.9485829306
 H         -3.3251222789       -3.6210749109       -2.5773062809
 H         -2.5940263897       -1.9786622206       -2.3601807303
 H         -5.3073856393       -2.9282410825       -1.1738714707
 H         -4.5849639302       -1.2822781122       -0.9689855101
 H         -3.3180828888       -3.9558710019       -0.0983211211
 O         -0.7451035605       -0.6481012599       -1.5525356297
