  62
        -98.93781764
 C         -1.2154947169       -1.4944391895        0.3315218767
 C         -1.7381627500       -0.5117654468        1.2056038878
 C         -2.9375468654        0.2240794067        0.7629672311
 C         -3.4379069670       -0.0365915366       -0.4584764074
 C         -4.6229019073        0.5945952040       -1.1404103856
 C         -4.3149951904        1.9982500966       -1.6833254577
 C         -3.5572307213        2.9071061427       -0.7191261184
 H         -2.6002529568        2.4459317074       -0.4643364302
 H         -3.3263315377        3.8346295789       -1.2505982330
 C         -4.3116360602        3.2751845220        0.5569181708
 H         -3.6996128017        4.0066009282        1.0911410950
 H         -5.2514619501        3.7624308893        0.2873405032
 C         -4.6172110797        2.1223304263        1.5166290627
 H         -5.4701410070        1.5409680312        1.1766464727
 H         -4.9054515610        2.5658400932        2.4741542890
 C         -3.4340288793        1.2027457140        1.7995556423
 H         -3.6619446822        0.6013004556        2.6879753224
 H         -2.5666661278        1.8126203450        2.0786385064
 H         -5.2561080801        2.4714625160       -1.9697550993
 H         -3.7035064129        1.8878236155       -2.5825354080
 H         -4.8810421685       -0.0532996903       -1.9812428838
 H         -5.4743024713        0.6193445172       -0.4667004654
 O         -2.8621521799       -0.9442644094       -1.2969276302
 C         -1.7343423318       -1.6691090501       -0.9515963490
 O         -1.3140264431       -2.4117165295       -1.8585649565
 O         -1.2158729882       -0.2446044255        2.3226157524
 C          0.0398100971       -2.2275588298        0.7673883424
 C          1.1286865677       -2.0324865042       -0.2586495401
 C          1.9436454905       -3.0449317643       -0.7463935156
 C          2.9374396499       -2.7556875591       -1.6667878102
 C          3.1560339965       -1.4610493256       -2.1012267773
 C          2.3422092795       -0.4408887938       -1.6204199958
 C          1.3415803182       -0.7374401838       -0.7121263718
 H          0.6921378937        0.0541392945       -0.3724393150
 N          2.5138288965        0.8891436415       -2.0298088385
 S          2.1743390385        2.1352890249       -0.9701327167
 O          0.7500397370        2.3114201403       -0.8312833699
 O          2.8971013468        3.2665012392       -1.5124997262
 C          2.9129654333        1.6396564137        0.5771679365
 C          4.2926856844        1.5769450900        0.6265724659
 C          4.9064759176        1.1564163950        1.7943833079
 C          4.1334136166        0.8012987404        2.8897806956
 C          2.7511415371        0.8761220113        2.8275951767
 C          2.1313861372        1.3000967849        1.6621069877
 H          1.0562411822        1.3604848666        1.5914498713
 H          2.1418440968        0.6007331605        3.6738492674
 H          4.6092246241        0.4669717851        3.7981223407
 H          5.9818911676        1.1035658989        1.8469210538
 H          4.8592019289        1.8723020180       -0.2414872887
 H          3.3316136342        1.0693649723       -2.5922528916
 H          3.9345571051       -1.2408818512       -2.8152641848
 H          3.5573453046       -3.5529082743       -2.0479619120
 H          1.7901305782       -4.0618239221       -0.4249547671
 H          0.3556382541       -1.6869270519        1.6769574192
 C         -0.1648453305       -3.6760551823        1.1835714609
 C         -1.5204553982       -4.1945184437        1.5580627958
 C         -0.8515116132       -4.6803635199        0.3089570746
 H         -0.4701315031       -5.6910971766        0.2947006529
 H         -1.2264292184       -4.3378981011       -0.6421164449
 H         -1.5994774062       -4.8671313463        2.3991297820
 H         -2.3594772814       -3.5210310978        1.4555121794
 H          0.6641568964       -4.0444220012        1.7801621624
