  62
        -98.93338131
 C         -2.5706532842       -1.2900963540        0.2843901282
 C         -2.4349430279       -0.1804613509       -0.5828420941
 C         -3.5967504578        0.7311102630       -0.6845046298
 C         -4.7017023923        0.4654274729        0.0346466938
 C         -5.9756958032        1.2630076388        0.1160302087
 C         -5.8309159465        2.5203875678        0.9898882379
 C         -4.5375091857        3.3046346500        0.7825217677
 H         -4.5010805125        4.0909193733        1.5412275559
 H         -3.6854133558        2.6455357302        0.9595741126
 C         -4.3905603820        3.9685465319       -0.5844358117
 H         -5.2138992683        4.6713947531       -0.7310039225
 H         -3.4614337472        4.5439049480       -0.5678083540
 C         -4.3426536989        3.0225979999       -1.7855028138
 H         -5.3335609906        2.6472948652       -2.0264555448
 H         -4.0154785281        3.6098314065       -2.6486870346
 C         -3.3562058507        1.8665804697       -1.6502056905
 H         -3.2348641674        1.3976826950       -2.6345350777
 H         -2.3673213438        2.2668340893       -1.3990820907
 H         -5.8647709312        2.2080836655        2.0365049628
 H         -6.6876115572        3.1703838383        0.8044347768
 H         -6.3189391971        1.5193745961       -0.8819031226
 H         -6.7260953387        0.6106364607        0.5681189699
 O         -4.7826515337       -0.6109827054        0.8687605879
 C         -3.7353160428       -1.4948149112        1.0283067048
 O         -3.9551853932       -2.4086318615        1.8489704001
 H          0.7633210903       -2.0260745146       -1.1141657257
 C          0.8775916152       -1.5179821551       -0.1692902690
 C         -0.1519812211       -1.5490922605        0.7566235182
 C          0.0096534045       -0.8612509070        1.9559720876
 C          1.1695421659       -0.1566144137        2.2152272285
 C          2.1903883274       -0.1159547214        1.2815598077
 C          2.0390672157       -0.7976311923        0.0820752373
 N          3.0520515213       -0.7354360950       -0.8847141632
 S          4.6578992699       -0.8535581744       -0.4395147411
 O          5.3488865137       -1.2853378992       -1.6351189097
 O          4.8266278781       -1.6840027479        0.7308069476
 C          5.1304819977        0.8234938684       -0.0710638074
 C          4.8261129658        1.8057807971       -0.9929152987
 C          5.2012399885        3.1127729487       -0.7262534975
 C          5.8734195801        3.4136991536        0.4490605855
 C          6.1745892014        2.4157417553        1.3629888739
 C          5.8011713810        1.1063484602        1.1025825841
 H          6.0083140259        0.2995491275        1.7876014404
 H          6.6971631511        2.6516568315        2.2761211392
 H          6.1634150783        4.4322464144        0.6537161991
 H          4.9670255378        3.8916534220       -1.4340649865
 H          4.3015402913        1.5334606562       -1.8936896686
 H          2.8500140759       -1.2355997995       -1.7369650180
 H          3.0956112533        0.4362244660        1.4748348419
 H          1.2798171412        0.3715089987        3.1503323380
 H         -0.7929972149       -0.8823933175        2.6811442365
 C         -1.4449541023       -2.2859696999        0.5108817310
 H         -1.7159168794       -2.8074376199        1.4435168220
 C         -1.3284529970       -3.3595626338       -0.5608956308
 C         -2.5552941377       -3.9176160635       -1.2167397551
 C         -1.5882788515       -3.0959407289       -2.0124090041
 H         -0.9695730833       -3.6004459899       -2.7408444112
 H         -1.8729625266       -2.0964289212       -2.2997010739
 H         -2.6032965739       -4.9806420973       -1.3991016704
 H         -3.5050492220       -3.4767802216       -0.9503936867
 H         -0.5409825768       -4.0713500051       -0.3294480625
 O         -1.4004507189        0.0640969756       -1.2554732621
