  62
        -98.94228022
 C         -1.1998297404       -0.9297974208        0.4360995212
 C         -2.0735981144       -0.7162448399       -0.6538338868
 C         -3.0669260137        0.3625429412       -0.4981746738
 C         -3.0678816642        1.1063018339        0.6236668971
 C         -3.9131551337        2.2954005352        1.0314193063
 C         -5.1928733432        2.6425033088        0.2751802646
 C         -6.3203366247        1.6212434281        0.4227647586
 H         -7.1399356142        1.9219441645       -0.2333642898
 H         -6.6872478420        1.6559994530        1.4515951986
 C         -5.9432560660        0.1741005809        0.1162816782
 H         -6.8347537585       -0.4416365658        0.2628488283
 H         -5.1937266035       -0.1687195184        0.8323390808
 C         -5.4295377525       -0.0814208305       -1.2992507671
 H         -6.1514829355        0.2955667933       -2.0261493181
 H         -5.3553547257       -1.1640202885       -1.4314852103
 C         -4.0497738057        0.5183355034       -1.6227316680
 H         -4.1296345884        1.5612935323       -1.9208312065
 H         -3.6310116530       -0.0318026163       -2.4707347876
 H         -4.9730199991        2.8201820616       -0.7734673550
 H         -5.5492084542        3.5904573820        0.6877879935
 H         -3.2403983110        3.1599757011        0.9910343223
 H         -4.1529467208        2.1419470973        2.0886206798
 O         -2.1699964623        0.8922551538        1.6304282326
 C         -1.2192382464       -0.1090448865        1.5612743753
 O         -0.4598321802       -0.1683251196        2.5508804305
 O         -2.0280188992       -1.3881818145       -1.7176404991
 C         -0.1381161427       -2.0107930976        0.3643316284
 C          0.8479630457       -1.7016866792       -0.7374337078
 C          1.4066937246       -2.6692211758       -1.5630311471
 C          2.3307113035       -2.3120787801       -2.5302459217
 C          2.7382980613       -0.9983978282       -2.6776002646
 C          2.1891383072       -0.0243832797       -1.8516750094
 C          1.2479317846       -0.3829403876       -0.9011183294
 H          0.8067339582        0.3872296287       -0.2875164314
 N          2.5732450832        1.3220146811       -1.9489827260
 S          2.6993358198        2.2309270435       -0.5496093659
 O          1.3921609839        2.6084574572       -0.0721005976
 O          3.5730096238        3.3258152212       -0.9167298660
 C          3.5340333110        1.1607263771        0.6089698509
 C          2.8653818129        0.6034104494        1.6791378091
 C          3.5508468521       -0.2659033239        2.5145504809
 C          4.8821064883       -0.5613924390        2.2693847042
 C          5.5428163396        0.0141718238        1.1941854795
 C          4.8636139927        0.8803372685        0.3544967464
 H          5.3442435016        1.3573215392       -0.4841800437
 H          6.5801994855       -0.2120439372        1.0078774629
 H          5.4067531257       -1.2413287685        2.9218809692
 H          3.0276728770       -0.7076654535        3.3478912175
 H          1.8267717472        0.8388809330        1.8544129483
 H          3.3315107950        1.5059120200       -2.5893012677
 H          3.4646630525       -0.7252687364       -3.4273029229
 H          2.7485220145       -3.0712871476       -3.1736426399
 H          1.1132082022       -3.7004012755       -1.4547300777
 H          0.4091135496       -1.9581088136        1.3181268427
 C         -0.7727229079       -3.3804639974        0.2421435440
 C         -0.1028593267       -4.5798477450        0.8405187221
 C         -1.3429547481       -4.0224295943        1.4701076966
 H         -2.2648057090       -4.5773628039        1.3816676831
 H         -1.2479627206       -3.4817288939        2.4009603348
 H         -0.1752937134       -5.5234804308        0.3211240894
 H          0.8352691877       -4.4263736001        1.3520393058
 H         -1.3178919385       -3.5043133348       -0.6860730285
