  62
        -98.93993693
 C          2.7743599437       -0.0279801044       -0.4184205274
 C          2.8316298840       -0.9818999437        0.6319264373
 C          2.3162180177       -2.3194410231        0.3336737299
 C          1.8465505133       -2.5869176358       -0.8978126468
 C          1.2285492715       -3.8821862380       -1.3482472512
 C         -0.2595325200       -3.9952992703       -0.9862618859
 C         -0.5481875170       -4.2798814320        0.4888788727
 H         -1.5924326464       -4.5918175499        0.5547613237
 H          0.0648541270       -5.1168784467        0.8261093240
 C         -0.3364876939       -3.0731181915        1.4141512448
 H         -0.3315919109       -2.1575290243        0.8173459987
 H         -1.1774753439       -2.9955193161        2.1079955205
 C          0.9352036541       -3.1333546095        2.2612080525
 H          0.8595769523       -3.9564338288        2.9761641054
 H          1.0130581987       -2.2001476198        2.8252365259
 C          2.2303177179       -3.3068871459        1.4580915590
 H          3.0741881533       -3.1202670280        2.1272741469
 H          2.3041719062       -4.3245411328        1.0752331068
 H         -0.7580445097       -3.0667860048       -1.2774229193
 H         -0.6812112388       -4.8072304460       -1.5839118227
 H          1.3245631390       -3.9131084235       -2.4357249515
 H          1.7775202913       -4.7240322537       -0.9247309769
 O          1.8928679755       -1.6783414103       -1.9046788166
 C          2.2980295921       -0.3636917983       -1.6862398344
 O          2.2082728633        0.3511608362       -2.7025081957
 H          0.4702313119        0.9608833703       -0.3981486994
 C          0.6419004524        1.5581473165        0.4845022158
 C          1.9395044409        1.9054690561        0.8322831660
 C          2.1393225832        2.6845893429        1.9644893820
 C          1.0597084005        3.1045823545        2.7230377381
 C         -0.2296101905        2.7377886910        2.3840183634
 C         -0.4385246273        1.9400265149        1.2623802241
 N         -1.7240382291        1.4749255987        0.9464693346
 S         -2.0710694717        0.7875920640       -0.5497515651
 O         -1.3705500303       -0.4643272002       -0.6718104661
 O         -1.8699649977        1.7585608873       -1.6038555865
 C         -3.8115298699        0.4774758816       -0.3280090124
 C         -4.7319145835        1.4183861110       -0.7492620136
 C         -6.0808081850        1.1766605808       -0.5409893570
 C         -6.4836832326        0.0058685263        0.0836621357
 C         -5.5483007465       -0.9304402729        0.4987477486
 C         -4.1983055594       -0.6948011311        0.2929732160
 H         -3.4340217946       -1.3948661215        0.5890897757
 H         -5.8648897756       -1.8414545763        0.9803197276
 H         -7.5337972368       -0.1799162101        0.2445937793
 H         -6.8105672401        1.9003207330       -0.8665339742
 H         -4.3728075686        2.3081568658       -1.2410897157
 H         -2.4722615562        2.0602983937        1.2885213664
 H         -1.0675363032        3.0474081114        2.9890605864
 H          1.2255336555        3.7146546578        3.5979850693
 H          3.1453616420        2.9432038260        2.2602103980
 C          3.0919265275        1.3998216267       -0.0051434358
 H          3.9719067467        1.3364878163        0.6564350599
 C          3.4419062012        2.3385666956       -1.1461311207
 C          2.4458309321        3.2732880574       -1.7572057035
 C          3.5566356862        3.8160684596       -0.9116989645
 H          4.3580793695        4.3508505734       -1.3981321616
 H          3.2992949677        4.1925937169        0.0663325843
 H          2.4803342705        3.4108721707       -2.8270278690
 H          1.4415461241        3.2748422198       -1.3596914555
 H          4.1596968498        1.8953340058       -1.8278474367
 O          3.2851838520       -0.7122508824        1.7773496773
