  62
        -98.93568176
 C         -1.6803851260       -0.2109676412        0.2783419418
 C         -2.7980447968       -0.9820942421        0.6815639433
 C         -4.1282774952       -0.3500451952        0.5883430276
 C         -4.2058738758        0.9282561677        0.1753708436
 C         -5.4373644230        1.7683474909       -0.0361526603
 C         -6.1903065276        1.4006882646       -1.3245896548
 C         -6.3603056073       -0.0972366806       -1.5638450426
 H         -6.8144449842       -0.2259158479       -2.5499462594
 H         -5.3762694356       -0.5683602211       -1.5977916353
 C         -7.2373372695       -0.8238976104       -0.5468567862
 H         -7.3506897845       -1.8538100125       -0.8949179598
 H         -8.2290365197       -0.3662073389       -0.5376746515
 C         -6.7064767595       -0.8646460652        0.8879792191
 H         -7.2892324279       -1.6160814057        1.4287384879
 H         -6.8753423408        0.0805772423        1.3968768200
 C         -5.2429106540       -1.2754679495        1.0138230056
 H         -5.0377590762       -1.5178249041        2.0635057453
 H         -5.0850194228       -2.2125829273        0.4677627206
 H         -7.1695747968        1.8818241345       -1.3008422152
 H         -5.6330980001        1.8117609790       -2.1701738437
 H         -6.0914463558        1.6979701316        0.8278706120
 H         -5.0996385809        2.8042224598       -0.1141989064
 O         -3.0982169413        1.6504237773       -0.1556767694
 C         -1.8181742644        1.1201247641       -0.1160146659
 O         -0.9294212901        1.9286421311       -0.4420247029
 O         -2.6955104223       -2.1646510508        1.1052713478
 C         -0.3138863358       -0.8678103353        0.3541702677
 C          0.6771179110        0.0458702674        1.0271020339
 C          0.5149993956        0.3323722082        2.3805285330
 C          1.3921417840        1.1749821903        3.0343792230
 C          2.4642712411        1.7319622470        2.3587572421
 C          2.6336970805        1.4537251208        1.0083720530
 C          1.7429512911        0.6159116440        0.3503875665
 H          1.8687299987        0.4568968115       -0.7067437300
 N          3.7086919724        2.0002926007        0.2960087177
 S          4.4331441277        1.1392337732       -0.9329718479
 O          5.7770039949        1.6747607661       -1.0002590513
 O          3.6659398126        1.2273498884       -2.1495553900
 C          4.4837949909       -0.5531183756       -0.3659840809
 C          3.9569644892       -1.5526597102       -1.1577102701
 C          3.9997174347       -2.8620080796       -0.7052635242
 C          4.5643959789       -3.1473070546        0.5279449661
 C          5.0956412038       -2.1329125103        1.3097586634
 C          5.0582252642       -0.8230533152        0.8604756540
 H          5.4703627122       -0.0148962361        1.4421714104
 H          5.5367531392       -2.3588330333        2.2671039678
 H          4.5911803860       -4.1663184209        0.8802962401
 H          3.5892728805       -3.6522711124       -1.3138759289
 H          3.5210192038       -1.2850849525       -2.1071969462
 H          4.3702234782        2.5305220799        0.8423190162
 H          3.1532574017        2.3891827548        2.8670143766
 H          1.2474599838        1.3954515538        4.0812555357
 H         -0.3202829770       -0.1060166961        2.9095192750
 H         -0.4704151028       -1.7401548480        1.0105604658
 C          0.1943259364       -1.4115678508       -0.9722721182
 C         -0.7511207124       -1.9240578790       -2.0156597711
 C          0.0298000958       -0.6698669378       -2.2633726790
 H          0.8405962590       -0.6934283653       -2.9777005271
 H         -0.4873059131        0.2767825232       -2.2360911964
 H         -0.4822991317       -2.8161559061       -2.5607846762
 H         -1.8095868413       -1.8336846347       -1.8193088890
 H          1.1201509426       -1.9652742537       -0.8469671380
