  62
        -98.93827137
 C         -0.2424939329       -1.8092588680       -0.8749234299
 C         -1.3145418051       -2.2208450134       -0.0472074082
 C         -2.5929399830       -1.4982761666       -0.1776613446
 C         -2.6734059543       -0.4917634017       -1.0662085967
 C         -3.8656676240        0.3758910246       -1.3713848781
 C         -4.1077883418        1.4705527875       -0.3149723742
 C         -3.8013942536        1.0627448064        1.1252926570
 H         -2.7837228913        0.6686730851        1.1884127718
 H         -3.8221952463        1.9666292804        1.7416544162
 C         -4.7837277518        0.0646020536        1.7352232279
 H         -5.7636501189        0.5417906648        1.8197547422
 H         -4.4352807675       -0.1619667112        2.7463079803
 C         -4.9623759812       -1.2505943673        0.9779678636
 H         -5.5979341513       -1.8947039643        1.5932819746
 H         -5.4973906134       -1.0837978321        0.0470489533
 C         -3.6757564259       -2.0322375859        0.7267584855
 H         -3.1834661779       -2.2226977216        1.6874025280
 H         -3.9420258174       -3.0218440934        0.3342168286
 H         -3.4691042990        2.3235231395       -0.5565315784
 H         -5.1454675254        1.8013002099       -0.3856438737
 H         -4.7447911823       -0.2516816135       -1.4916049450
 H         -3.6679539855        0.8556447728       -2.3322683488
 O         -1.6110083700       -0.1070497129       -1.8234811211
 C         -0.3682391508       -0.7198701627       -1.7372705178
 O          0.4905415303       -0.2063472400       -2.4750577384
 O         -1.2108567011       -3.1759900182        0.7718573965
 C          1.0732864322       -2.5454211127       -0.6918488585
 C          1.8232055779       -1.9603704630        0.4788137672
 C          2.4750901579       -2.7666995170        1.4044686940
 C          3.1297912528       -2.2045720960        2.4865083916
 C          3.1178733573       -0.8352047498        2.6845991997
 C          2.4612902178       -0.0224103007        1.7683127348
 C          1.8488329268       -0.5857902775        0.6601876450
 H          1.3560672915        0.0553201137       -0.0541080144
 N          2.3905608739        1.3698390963        1.9310286517
 S          0.9287500117        2.1179460647        1.5790913127
 O          0.9525111202        3.3392483311        2.3602065949
 O         -0.1900098558        1.2383737926        1.8282269992
 C          1.0197611250        2.5485455350       -0.1433615489
 C          2.2381529055        2.8551511165       -0.7142550127
 C          2.2731174569        3.2222762229       -2.0494968129
 C          1.0986783199        3.2836188509       -2.7829360437
 C         -0.1168145157        2.9805507899       -2.1918564880
 C         -0.1583890911        2.6107867216       -0.8582351114
 H         -1.0785373221        2.3435929734       -0.3621286496
 H         -1.0291539848        3.0138978686       -2.7655681042
 H          1.1302203499        3.5601743957       -3.8249768903
 H          3.2173964035        3.4518004225       -2.5166843338
 H          3.1330003185        2.7866074878       -0.1179130132
 H          2.7943820802        1.7235203868        2.7866587020
 H          3.6007365041       -0.3983393014        3.5454722416
 H          3.6346891314       -2.8405005563        3.1977357080
 H          2.4474560198       -3.8398667712        1.2854487984
 H          0.7943901422       -3.5759634271       -0.4174433779
 C          1.9179448594       -2.6180929693       -1.9546288035
 C          3.1387402569       -1.7797245489       -2.1681429367
 C          3.2780520753       -3.2502792902       -1.9220579785
 H          3.5677575031       -3.8881214235       -2.7432421654
 H          3.6629071849       -3.5608882716       -0.9628264761
 H          3.3120932227       -1.3936019380       -3.1603413453
 H          3.4273688844       -1.0994742819       -1.3821349732
 H          1.3114007649       -2.8138936671       -2.8325684450
