  62
        -98.94601229
 C         -1.4787095691       -1.0502730398        0.0899607142
 C         -2.4171986690       -0.7069557171        1.0902282392
 C         -3.0446549179        0.6126363980        0.9497884022
 C         -2.6722449671        1.4252059790       -0.0560521016
 C         -3.1995205707        2.8112639890       -0.3121976904
 C         -4.5156825810        2.8411932410       -1.1014559024
 C         -5.7530251253        2.3961794070       -0.3208977102
 H         -5.8110629380        2.9528534391        0.6150968373
 H         -6.6245444020        2.6724358888       -0.9177286312
 C         -5.8119128488        0.8898289647       -0.0309694603
 H         -5.1170195963        0.3640388940       -0.6897304568
 H         -6.8125349033        0.5144234633       -0.2567522112
 C         -5.5030215917        0.5100965922        1.4172926235
 H         -5.5360818748       -0.5793261869        1.5004590060
 H         -6.2713370421        0.9205832537        2.0763682926
 C         -4.1304036495        0.9818658149        1.9148707717
 H         -4.1418743630        2.0584125837        2.0852913500
 H         -3.9182721530        0.4803427940        2.8626606112
 H         -4.4037951707        2.2184023963       -1.9918442404
 H         -4.6732949417        3.8701784258       -1.4328038302
 H         -2.4383424432        3.3337425882       -0.8954787986
 H         -3.3302381470        3.3361440197        0.6346794901
 O         -1.7294390523        1.0758607343       -0.9710928170
 C         -1.1292455503       -0.1771926372       -0.9414209448
 O         -0.3160363585       -0.3797831478       -1.8592109516
 O         -2.7083781832       -1.4598690215        2.0593371759
 C         -0.7895960072       -2.4011053260        0.1503938106
 C          0.7063543312       -2.2106066956        0.2013757925
 C          1.5995949894       -2.9419605718       -0.5697336439
 C          2.9594991355       -2.6902873173       -0.4983166854
 C          3.4575143528       -1.7085671410        0.3375579829
 C          2.5725960390       -0.9787083333        1.1210803510
 C          1.2138853715       -1.2390928520        1.0557650494
 H          0.5287611340       -0.6643789861        1.6673758201
 N          3.0665901176        0.0399145800        1.9604921225
 S          4.0315875716        1.1952194066        1.2204521009
 O          5.3733989309        0.6824585965        1.0987652717
 O          3.8834965198        2.3866297975        2.0272814083
 C          3.3231782210        1.4371054321       -0.3976005963
 C          2.0715157842        2.0142219816       -0.4797364555
 C          1.4871504712        2.1747545645       -1.7243492771
 C          2.1587759780        1.7501617244       -2.8598305421
 C          3.4142684634        1.1726437227       -2.7610920502
 C          4.0053287553        1.0116399284       -1.5183687818
 H          4.9796783589        0.5673713728       -1.3967104987
 H          3.9309661193        0.8410974861       -3.6473724486
 H          1.6922995481        1.8646325742       -3.8252223316
 H          0.5034630838        2.6086897780       -1.8046560684
 H          1.5746764047        2.3333986761        0.4237235228
 H          2.3459021034        0.4896130821        2.5068476249
 H          4.5113975929       -1.4899668723        0.3961265357
 H          3.6407020628       -3.2627926998       -1.1088826361
 H          1.2311270319       -3.7039095440       -1.2364727198
 H         -1.1140135618       -2.8564677480        1.0981719461
 C         -1.2500196251       -3.2785359227       -0.9948855207
 C         -1.2977633156       -4.7682384025       -0.8381578958
 C         -2.5701993918       -3.9781915565       -0.8823223960
 H         -3.1939721186       -4.0490795098       -1.7607739058
 H         -3.1243419163       -3.8456016247        0.0356395042
 H         -1.0502670638       -5.3848122966       -1.6890614607
 H         -0.9918727740       -5.1821492944        0.1107694565
 H         -0.9803202279       -2.8714641238       -1.9629054868
