  62
        -98.94176934
 C         -2.5370626434       -0.3153500395        0.0116958189
 C         -2.2491853356       -1.3463358974       -0.9092361341
 C         -1.5509308351       -2.5298401679       -0.3780955961
 C         -1.2330141377       -2.5638200448        0.9279684604
 C         -0.4460532835       -3.6173558316        1.6581101475
 C          1.0503589048       -3.2572124615        1.6617699409
 C          1.8426248910       -3.8111893130        0.4793820487
 H          2.8592830245       -3.4186537322        0.5577368239
 H          1.8987095351       -4.8995171348        0.5602187810
 C          1.2865587893       -3.4471215208       -0.8993390600
 H          2.0921255517       -3.5663197019       -1.6273716837
 H          1.0042195241       -2.3916580831       -0.9139853638
 C          0.0999434594       -4.3246878921       -1.3249961483
 H          0.2850028988       -4.7180645909       -2.3270259978
 H          0.0357935726       -5.1863644880       -0.6605096204
 C         -1.2572225384       -3.6121651088       -1.3819622646
 H         -1.3643228568       -3.1203011729       -2.3543263102
 H         -2.0545402837       -4.3618369087       -1.3230811660
 H          1.1352863538       -2.1669017695        1.6750460624
 H          1.5013816464       -3.6361842685        2.5815393918
 H         -0.6157747238       -4.5996956968        1.2270077684
 H         -0.8095021943       -3.6164053195        2.6878226252
 O         -1.5602587379       -1.5616162607        1.7896145885
 C         -2.1760605345       -0.4041439057        1.3559575999
 O         -2.3672244038        0.4457330048        2.2479429172
 O         -2.5523875237       -1.2750860094       -2.1335687196
 C         -3.1276943182        0.9901919709       -0.4926455663
 C         -2.1290892726        2.0897877145       -0.2207381113
 C         -2.4522233293        3.3199188005        0.3354245957
 C         -1.4550773075        4.2364119979        0.6258286839
 C         -0.1247318602        3.9408505368        0.3921489124
 C          0.2056097066        2.7201843178       -0.1869433443
 C         -0.7977041412        1.8268506333       -0.5167509841
 H         -0.5311953019        0.8835780613       -0.9710554619
 N          1.5424238390        2.3683632239       -0.4511366678
 S          1.9414944455        0.7298680011       -0.2994827716
 O          1.6109131329        0.0644725180       -1.5347343535
 O          1.3713512985        0.1799906126        0.9088164494
 C          3.7149180833        0.8420024752       -0.1515428492
 C          4.4549001553        1.0967736940       -1.2910940201
 C          5.8315204392        1.2125457148       -1.1837220271
 C          6.4422288746        1.0707269932        0.0537711864
 C          5.6870519717        0.8116681123        1.1875439020
 C          4.3089640666        0.6977002409        1.0874572663
 H          3.6805325666        0.4910724529        1.9391998094
 H          6.1641978771        0.6976255673        2.1475308046
 H          7.5139856136        1.1595480641        0.1347110241
 H          6.4221014127        1.4108944114       -2.0634707250
 H          3.9360608373        1.1871833410       -2.2310661856
 H          2.2043477842        2.9574867909        0.0360942833
 H          0.6515243638        4.6427584149        0.6564502886
 H         -1.7174004464        5.1864195239        1.0664458970
 H         -3.4801600563        3.5538772082        0.5596627207
 H         -3.2288460422        0.8687192742       -1.5817765256
 C         -4.4946688343        1.2458123565        0.1035571978
 C         -5.5087398739        2.0510508329       -0.6514065177
 C         -5.6865748957        0.5707507690       -0.5038125671
 H         -6.4611738753        0.2044874974        0.1528702440
 H         -5.5123523073       -0.0563997331       -1.3660432484
 H         -6.1669119211        2.7019278882       -0.0960118361
 H         -5.2230678092        2.4317916699       -1.6202996317
 H         -4.4647837074        1.3353298798        1.1835987994
