  62
        -98.94474275
 C          1.8500204951        0.7340131114        0.3746863650
 C          2.4600705547        0.1045731272       -0.7373175660
 C          3.5319551912       -0.8512777292       -0.4206791186
 C          3.8337614953       -1.1037551575        0.8659542190
 C          4.9386707026       -2.0086525401        1.3268155995
 C          6.2486059225       -1.2312436322        1.5181870447
 C          6.6181668797       -0.3413503431        0.3314015885
 H          5.8774265415        0.4561798523        0.2393522039
 H          7.5734938050        0.1329041000        0.5662411668
 C          6.7312184406       -1.0833238270       -1.0077087911
 H          7.6349316973       -0.7460546083       -1.5196323185
 H          6.8404543111       -2.1538841925       -0.8303511816
 C          5.5621184978       -0.8453884688       -1.9654107981
 H          5.8431975342       -1.2332715415       -2.9481059329
 H          5.3907158901        0.2284221385       -2.0745551730
 C          4.2345974207       -1.5077203245       -1.5754351063
 H          4.3971447002       -2.5690789292       -1.3763313781
 H          3.5544906339       -1.4188995164       -2.4279011677
 H          7.0510147570       -1.9479939362        1.7020333068
 H          6.1492357625       -0.5981116025        2.4029653975
 H          4.6464538005       -2.4512759597        2.2807108444
 H          5.0787867375       -2.8037877334        0.5970354898
 O          3.1856418401       -0.5211137477        1.9074449835
 C          2.1867173402        0.4142439791        1.6892635971
 O          1.6736569705        0.8726086270        2.7311479108
 O          2.1305177088        0.3281354746       -1.9305681894
 C          0.7581899980        1.7660972927        0.1557736056
 C         -0.4113959542        1.1382412802       -0.5636674578
 C         -1.0372265292        1.7145788556       -1.6605857101
 C         -2.1068538150        1.0809644728       -2.2707711858
 C         -2.5819616780       -0.1272242183       -1.7967225613
 C         -1.9764249714       -0.7015958398       -0.6854247017
 C         -0.9060469125       -0.0658762244       -0.0763611791
 H         -0.4336523934       -0.5168023598        0.7881878627
 N         -2.4666016538       -1.9174699188       -0.1798301197
 S         -4.1248497568       -2.0912304811       -0.0356381649
 O         -4.3153225193       -3.0251483247        1.0522263643
 O         -4.6831901136       -2.4855950324       -1.3051232214
 C         -4.7334194451       -0.4743974359        0.4120574136
 C         -4.2482110003        0.1082473508        1.5661951924
 C         -4.6880190464        1.3751350383        1.9132744511
 C         -5.6018266917        2.0343285311        1.1050046773
 C         -6.0842739554        1.4333657215       -0.0470005846
 C         -5.6457340522        0.1672443768       -0.4004865562
 H         -5.9910589634       -0.3354128455       -1.2891554601
 H         -6.7962052379        1.9474073170       -0.6722666306
 H         -5.9389742911        3.0220298917        1.3770352318
 H         -4.3125340785        1.8431619050        2.8092141598
 H         -3.5407268748       -0.4300905111        2.1769176635
 H         -1.9885753420       -2.2421659239        0.6473121684
 H         -3.4019999238       -0.6407729072       -2.2717923543
 H         -2.5751739112        1.5336926490       -3.1311297457
 H         -0.6815326251        2.6553558449       -2.0464086490
 H          0.4169795090        2.0621315530        1.1586660547
 C          1.3220942720        2.9838516348       -0.5457875691
 C          0.7158964552        4.3347309892       -0.3167859080
 C          2.0574369770        4.0070747903        0.2648085317
 H          2.9346397544        4.4702905718       -0.1615678727
 H          2.1286795923        3.8382147701        1.3298133948
 H          0.6736630702        5.0282327282       -1.1429580755
 H         -0.1250956134        4.3976462471        0.3568595386
 H          1.7102412985        2.7540671921       -1.5312613996
