  62
        -98.94414008
 C          2.0154978256        0.8481943442        0.1738307456
 C          2.4165993270       -0.4390728220       -0.2586303275
 C          3.7465254177       -0.8744873726        0.1892895404
 C          4.4781969734       -0.0830114367        0.9938329052
 C          5.8366447646       -0.4019709368        1.5565384705
 C          6.9975640152       -0.0864914043        0.6034799894
 C          7.1421076052       -1.0401588287       -0.5830946300
 H          8.1126231227       -0.8375460844       -1.0404160035
 H          7.1617662494       -2.0685598546       -0.2209260466
 C          6.0516837461       -0.8894662996       -1.6529305213
 H          5.5436246923        0.0687244426       -1.5224496015
 H          6.5129321260       -0.8748885979       -2.6430181874
 C          5.0076712655       -2.0062496369       -1.6565749344
 H          5.4851785962       -2.9535515955       -1.9168829213
 H          4.2669207122       -1.7801298587       -2.4277915746
 C          4.2662765949       -2.1831579460       -0.3248404028
 H          4.9213634657       -2.6489322565        0.4111252008
 H          3.4078672086       -2.8382994493       -0.4932188441
 H          7.9192197021       -0.1265585953        1.1885866923
 H          6.8808415377        0.9360556169        0.2372174463
 H          5.9520484329        0.2099170116        2.4538112875
 H          5.8764281866       -1.4526160838        1.8456227808
 O          4.0396353154        1.1315497537        1.4188352840
 C          2.8133348226        1.6292025765        1.0135276865
 O          2.5461512645        2.7614101547        1.4634931779
 O          1.7142363675       -1.1921267837       -0.9825722260
 C          0.6652026296        1.4264627002       -0.2189171814
 C         -0.4148501527        0.6347609941        0.4766327860
 C         -0.6703007316        0.8793530901        1.8230953354
 C         -1.6371695814        0.1615468490        2.5016257340
 C         -2.3705152427       -0.8156989488        1.8510378636
 C         -2.1174622527       -1.0706977525        0.5104367371
 C         -1.1515611158       -0.3432150611       -0.1722967320
 H         -0.9570743907       -0.5625512966       -1.2098943415
 N         -2.8783198127       -2.0496154169       -0.1583762012
 S         -4.5401814922       -1.8461531007       -0.0922174809
 O         -5.0386448586       -2.3508331153        1.1626117465
 O         -5.0585600917       -2.4848722981       -1.2813961170
 C         -4.7688098982       -0.0779532131       -0.1695355693
 C         -5.2273126163        0.6073699742        0.9365917374
 C         -5.3273858199        1.9881801857        0.8748575663
 C         -4.9630903887        2.6560077810       -0.2837064222
 C         -4.5065225924        1.9527084445       -1.3880618732
 C         -4.4050341121        0.5726163051       -1.3320692342
 H         -4.0589250736       -0.0052385344       -2.1739011401
 H         -4.2239270319        2.4748293814       -2.2881624591
 H         -5.0350284168        3.7313626197       -0.3278031253
 H         -5.6830401754        2.5380003888        1.7312981790
 H         -5.4966357879        0.0494618960        1.8183508152
 H         -2.5727994412       -2.2137698108       -1.1067551333
 H         -3.1311423273       -1.3857095471        2.3597889813
 H         -1.8236531262        0.3639162456        3.5453018518
 H         -0.0919667696        1.6386692083        2.3313327720
 H          0.6478140390        2.4463541656        0.1876601202
 C          0.4929149507        1.4975052874       -1.7221065022
 C         -0.6432954657        2.2941766659       -2.2884467395
 C          0.7642658216        2.7883428576       -2.4312808801
 H          1.2282752647        2.7524461073       -3.4057031735
 H          1.0745372938        3.6320618245       -1.8323309895
 H         -1.1467317612        1.9213974286       -3.1674221833
 H         -1.2914220057        2.7992591538       -1.5883585636
 H          0.7771831787        0.5846090868       -2.2306534575
