  62
        -98.94063927
 C         -1.2975884297       -1.4931935403        0.3898161905
 C         -1.8748942395       -0.4547446303        1.1654819806
 C         -3.0126318295        0.2485263399        0.5628357508
 C         -3.4206807496       -0.0841933500       -0.6749609992
 C         -4.6019108396        0.4944423602       -1.4061478191
 C         -4.3121285395        1.8161283702       -2.1296545690
 C         -4.1406420393        3.0303539102       -1.2167944089
 H         -4.1662528393        3.9162111202       -1.8543609989
 H         -4.9905861893        3.0948861802       -0.5366930689
 C         -2.8319822493        3.0367387200       -0.4145840090
 H         -2.1260405694        2.3319125199       -0.8598527891
 H         -2.3769253892        4.0266874099       -0.4773807690
 C         -2.9919271992        2.7038753799        1.0686565210
 H         -3.5771722991        3.4844047399        1.5598178111
 H         -1.9986327992        2.6849366697        1.5227488009
 C         -3.6590393793        1.3509495199        1.3462794409
 H         -3.5368264693        1.1197547898        2.4074213809
 H         -4.7243870493        1.4014868200        1.1207678710
 H         -3.4164214495        1.6899692102       -2.7419883491
 H         -5.1508400095        2.0084677404       -2.8028071090
 H         -4.8979430997       -0.2478065997       -2.1507636892
 H         -5.4286461795        0.6343888202       -0.7086710291
 O         -2.7960261397       -1.0362568100       -1.4153888694
 C         -1.7139600198       -1.7543248201       -0.9170000095
 O         -1.2418735699       -2.5692890701       -1.7298202696
 O         -1.4663829394       -0.1392851604        2.3146265706
 C         -0.1532062497       -2.2753410304        1.0093676304
 C          1.0168935602       -2.3361758305        0.0621359603
 C          1.4194888401       -3.4996117305       -0.5802772898
 C          2.4888809900       -3.4785246105       -1.4572281099
 C          3.1896117101       -2.3097058605       -1.6914864899
 C          2.7980096103       -1.1405546406       -1.0500222097
 C          1.7134647003       -1.1601736205       -0.1883722897
 H          1.4050070005       -0.2465425405        0.3010049404
 N          3.4841751904        0.0674895394       -1.2611634597
 S          3.8806649206        1.0042496192        0.0706266904
 O          5.0345788506        1.7696961692       -0.3531966296
 O          4.0565726206        0.1931614591        1.2524694903
 C          2.5141886407        2.1239642894        0.2800553905
 C          1.9226433808        2.2526437693        1.5205340106
 C          0.9112962209        3.1850596394        1.6880057107
 C          0.5121596309        3.9682382595        0.6164758808
 C          1.1077699508        3.8183679796       -0.6269547292
 C          2.1221767207        2.8908611495       -0.7994543594
 H          2.6178638906        2.7537645795       -1.7461602094
 H          0.7872485808        4.4244130197       -1.4590632892
 H         -0.2676729590        4.7004744496        0.7541324009
 H          0.4412652410        3.2933179394        2.6526605408
 H          2.2597823108        1.6212329492        2.3275235805
 H          4.2613312203       -0.0006217206       -1.9028323497
 H          4.0303361701       -2.2972099406       -2.3689601999
 H          2.7854288699       -4.3864985105       -1.9603551000
 H          0.8775492100       -4.4158271304       -0.4135305599
 H          0.1523265104       -1.6681642405        1.8780901404
 C         -0.5513344098       -3.6379854604        1.5573222903
 C         -1.9096422598       -3.8566928303        2.1522499104
 C         -1.5334178599       -4.5391681303        0.8731522103
 H         -1.3500936000       -5.6035931303        0.8970098802
 H         -1.9776640200       -4.1949782402       -0.0472705897
 H         -1.9890460898       -4.4499418704        3.0507541603
 H         -2.6113189497       -3.0364389703        2.1059313005
 H          0.2787163602       -4.1220233906        2.0637314502
