  62
        -98.94141457
 C         -2.4245904206       -1.0135371194       -0.5706084791
 C         -3.4308404805       -0.4701067390        0.2720685708
 C         -3.8753153305        0.8921422308       -0.0350403398
 C         -3.3377018306        1.5462023104       -1.0801284601
 C         -3.6928057407        2.9350516702       -1.5361881207
 C         -2.9543854906        4.0447295405       -0.7751888012
 C         -3.4310898704        4.2756869011        0.6593356987
 H         -2.9910649703        5.2167441713        0.9950943283
 H         -4.5143310004        4.4008838511        0.6658978488
 C         -3.0330723503        3.1680857016        1.6452360691
 H         -2.2243250703        2.5695518114        1.2170747193
 H         -2.6398918302        3.6187084819        2.5596023289
 C         -4.1775940002        2.2403343617        2.0544897797
 H         -4.9265940802        2.8080811620        2.6110165995
 H         -3.7725034502        1.4732079420        2.7195040000
 C         -4.8715014004        1.5340819312        0.8824406101
 H         -5.5079617803        0.7436430814        1.2874155805
 H         -5.4942712504        2.2398310910        0.3333528698
 H         -1.8858288106        3.8148342705       -0.7701767413
 H         -3.0927556906        4.9723910303       -1.3353692516
 H         -3.4155477708        2.9968654097       -2.5906508807
 H         -4.7690681006        3.0860847102       -1.4490326806
 O         -2.3907772207        0.9876161000       -1.8762800700
 C         -1.8868312507       -0.2814364399       -1.6291053095
 O         -0.9911457708       -0.6168035502       -2.4316826994
 O         -3.9401855604       -1.1036867686        1.2344799911
 C         -1.9312228705       -2.4094065993       -0.2216028685
 C         -0.6619520304       -2.3041437389        0.5899833613
 C         -0.6385959403       -2.6552335883        1.9345016214
 C          0.5133043298       -2.4955065080        2.6856626912
 C          1.6620132697       -1.9764438983        2.1152526408
 C          1.6447379096       -1.6176490989        0.7741751007
 C          0.4960698195       -1.7949854792        0.0190897109
 H          0.4869253494       -1.4953677396       -1.0187486792
 N          2.8061192795       -1.0550306891        0.1841619103
 S          3.1350276896        0.5179711511        0.7183480296
 O          3.3381485398        0.4790102317        2.1440056096
 O          2.1170168895        1.4344323009        0.2458005093
 C          4.6822516295        0.8310584807       -0.1071110907
 C          4.6907117194        1.5443634802       -1.2898338810
 C          5.8977681493        1.7491647899       -1.9399879213
 C          7.0675128694        1.2354800802       -1.4009864812
 C          7.0420950895        0.5191697107       -0.2134130609
 C          5.8390832496        0.3124121110        0.4421070494
 H          5.7706145397       -0.2302326986        1.3700977596
 H          7.9541780695        0.1226938509        0.2025584692
 H          8.0048138893        1.3965035899       -1.9096840114
 H          5.9196786992        2.3065499895       -2.8627049115
 H          3.7573741493        1.9301370701       -1.6689489011
 H          2.6946530294       -1.0057030496       -0.8221690997
 H          2.5558977898       -1.8195416180        2.6957416707
 H          0.5144679099       -2.7706835476        3.7295609613
 H         -1.5396966102       -3.0332567381        2.3955012217
 H         -2.7088779205       -2.8341136890        0.4273877217
 C         -1.7584691307       -3.3175628698       -1.4218318382
 C         -1.7522356707       -4.8011846997       -1.2125439875
 C         -2.9178996107       -4.1441735900       -1.8873088077
 H         -3.0520030509       -4.2888751305       -2.9487205676
 H         -3.8443015207       -4.0589589997       -1.3382794676
 H         -1.0836167207       -5.4017264000       -1.8097266473
 H         -1.8889796105       -5.1637201693       -0.2050465174
 H         -1.1040653808       -2.9122905701       -2.1820773284
