  62
        -98.93906549
 C          2.1563398808        0.9415182604       -0.0435122686
 C          2.9864813106        0.5891465695        1.0507667812
 C          3.7606955405       -0.6570211405        0.9284984903
 C          3.6213487306       -1.4012091596       -0.1820191703
 C          4.3368976905       -2.6768170694       -0.5315355812
 C          5.6003776207       -2.3845774588       -1.3588675108
 C          6.8582261406       -2.1052722496       -0.5371660103
 H          7.1922229904       -3.0325419100       -0.0670870910
 H          7.6382814907       -1.7917226092       -1.2346519600
 C          6.7070324305       -1.0340527505        0.5458444105
 H          6.1399043906       -0.1895026001        0.1502981911
 H          7.7042598505       -0.6660394108        0.7943716210
 C          6.0375223702       -1.5587727615        1.8247302600
 H          6.6550310201       -1.3025413922        2.6880877703
 H          5.9968891401       -2.6470568814        1.7862172491
 C          4.6356285902       -0.9991058915        2.1037497602
 H          4.0926529701       -1.6986102820        2.7483726495
 H          4.7221039702       -0.0635713720        2.6653041310
 H          5.3855826008       -1.5308652383       -2.0068196601
 H          5.8013272107       -3.2416946783       -2.0047771714
 H          3.6461066005       -3.2606319888       -1.1438548918
 H          4.5740691403       -3.2439527101        0.3636402884
 O          2.8029175008       -1.0354456887       -1.2054895901
 C          2.0535731409        0.1277038014       -1.1712128693
 O          1.3659326911        0.3050881723       -2.1974061793
 O          3.0850483705        1.2970052986        2.0886319918
 C          1.3396538509        2.2178793004        0.0915821223
 C         -0.0813733592        1.8434633903        0.4369608617
 C         -0.5198668994        1.8944138693        1.7558724317
 C         -1.7968590895        1.4813846991        2.0913263912
 C         -2.6580497494        0.9985555200        1.1218805306
 C         -2.2239383592        0.9307216510       -0.1950631493
 C         -0.9524443591        1.3687130711       -0.5333445888
 H         -0.6173668089        1.2881829119       -1.5562449288
 N         -3.0829600891        0.4036438719       -1.1823260699
 S         -3.5926905093       -1.1804375383       -0.9258869013
 O         -2.6342551595       -1.9266759990       -0.1418268917
 O         -3.9015296091       -1.7052645872       -2.2384024717
 C         -5.1103236494       -0.9880559389       -0.0132164613
 C         -5.2526422797       -1.5870564798        1.2230247581
 C         -6.4457744898       -1.4283625203        1.9110368681
 C         -7.4696769196       -0.6782642497        1.3531117885
 C         -7.3115486193       -0.0849849787        0.1092828590
 C         -6.1220610093       -0.2407058983       -0.5842178509
 H         -5.9586793391        0.1988061425       -1.5539132705
 H         -8.1100626892        0.4973695717       -0.3213083106
 H         -8.3964748497       -0.5557206201        1.8909841885
 H         -6.5700652600       -1.8892177710        2.8778165977
 H         -4.4260658898       -2.1554741602        1.6188200678
 H         -2.6935837189        0.4809328526       -2.1123954598
 H         -3.6503242495        0.6636938199        1.3768889302
 H         -2.1232712497        1.5292660883        3.1190020612
 H          0.1603537105        2.2406864486        2.5206956021
 H          1.7684326808        2.7422286197        0.9557926928
 C          1.4355346812        3.1243984414       -1.1179065770
 C          1.0271689113        4.5597725713       -0.9814271559
 C          2.4739706213        4.2041867013       -1.1412249960
 H          2.9620014415        4.4277376620       -2.0780549457
 H          3.1203255012        4.2950267105       -0.2805066158
 H          0.5187701915        5.0311902920       -1.8083272156
 H          0.6915286012        4.8913190406       -0.0105705257
 H          1.2239198113        2.6256535221       -2.0547140174
