  62
        -98.93328373
 C          2.2771252736       -0.2823286678       -0.1769490433
 C          3.4375468502       -0.7080978765       -0.8651664627
 C          4.6744332742        0.0289211180       -0.5676290201
 C          4.6320245694        1.0512739226        0.3063958161
 C          5.8184923084        1.8448129247        0.7753037534
 C          6.6141727380        1.0340123908        1.8183385988
 C          8.0208148923        0.6373616432        1.3695164016
 H          8.6715242854        1.5124106302        1.4271449166
 H          8.3956449326       -0.0995844809        2.0829784928
 C          8.1330068824        0.0628140985       -0.0459431187
 H          9.1149344852       -0.4093032125       -0.1202681269
 H          8.1228160927        0.8753329756       -0.7738893118
 C          7.0628577847       -0.9630177267       -0.4409243352
 H          7.5439824339       -1.7457423132       -1.0309590518
 H          6.6452191932       -1.4443207353        0.4436609327
 C          5.9174486883       -0.3955003453       -1.3001171246
 H          6.2902783253        0.4386195323       -1.9009464476
 H          5.5810439804       -1.1737912068       -1.9915036252
 H          6.6995575184        1.6116370455        2.7399646975
 H          6.0418862498        0.1366340989        2.0628177726
 H          5.4383802672        2.7652618255        1.2185990894
 H          6.4490378645        2.1000771952       -0.0733977342
 O          3.4928350514        1.4399926797        0.9369848144
 C          2.2884038483        0.7885886199        0.7158172018
 O          1.3282268069        1.2514993678        1.3598569007
 O          3.4369141605       -1.6570831778       -1.6956843165
 C          0.9687052258       -1.0091429503       -0.4257029910
 C         -0.0774656820       -0.0523444055       -0.9414340994
 C          0.2370077476        0.7690883253       -2.0219462561
 C         -0.6938626579        1.6514657436       -2.5332638121
 C         -1.9649303821        1.7235401662       -1.9901330709
 C         -2.2893984125        0.9087586647       -0.9128392192
 C         -1.3480823649        0.0282999611       -0.3959617365
 H         -1.6295299384       -0.5904967872        0.4392347348
 N         -3.5621222178        0.9742350749       -0.3238512989
 S         -4.2445736584       -0.4430413065        0.2871105840
 O         -3.7494663273       -0.6692012887        1.6215028788
 O         -4.0645239760       -1.5253591217       -0.6541780533
 C         -5.9622029730        0.0331189505        0.3576938119
 C         -6.8108562964       -0.3323071410       -0.6702483611
 C         -8.1374907080        0.0659062692       -0.6181620300
 C         -8.5898868099        0.8211618482        0.4532866752
 C         -7.7264393605        1.1798132440        1.4779444761
 C         -6.3991838238        0.7839030759        1.4328435248
 H         -5.6941786612        1.0305036524        2.2096800696
 H         -8.0823664090        1.7643181542        2.3109502137
 H         -9.6226751572        1.1295869879        0.4919654527
 H         -8.8119656151       -0.2144500799       -1.4110810783
 H         -6.4167368272       -0.9273418683       -1.4783336844
 H         -4.2245315862        1.5055908960       -0.8720244127
 H         -2.6944554068        2.4104378218       -2.3915069888
 H         -0.4321456235        2.2838843681       -3.3683924862
 H          1.2272415818        0.7058073487       -2.4529303309
 H          1.1842186889       -1.7368057570       -1.2231283115
 C          0.5389121008       -1.7641369072        0.8141326276
 C         -0.3304300957       -2.9787725073        0.6934178216
 C          1.1101175958       -3.1233980604        1.0797803844
 H          1.3471345403       -3.3931037811        2.0979876575
 H          1.7975082491       -3.5233168145        0.3486582054
 H         -1.0903899680       -3.1429685736        1.4431821043
 H         -0.6277752859       -3.2832693731       -0.2990227301
 H          0.3832590431       -1.1112151063        1.6666257271
