  62
        -98.93044422
 C         -2.4363684793       -0.9149845062        0.5217039522
 C         -2.8511494257        0.3396160577        1.0332517166
 C         -4.2579235545        0.7226928145        0.8251492866
 C         -5.0757048330       -0.1183517330        0.1654098162
 C         -6.5515560838       -0.0259820690       -0.1622183431
 C         -7.3019452241        1.2951545095       -0.0164254774
 C         -6.8844894776        2.3801207467       -1.0087295850
 H         -7.2168287505        2.0836557119       -2.0067443300
 H         -7.4053323177        3.3031800295       -0.7452053325
 C         -5.3859431506        2.6608461485       -1.0885142591
 H         -4.8628554260        1.7696160339       -1.4412942879
 H         -5.2314213839        3.4417231085       -1.8381022921
 C         -4.7379150045        3.1323332790        0.2117737649
 H         -5.2710413379        4.0051611391        0.5937599108
 H         -3.7152958602        3.4405922181       -0.0227621508
 C         -4.6560367970        2.0794799485        1.3304319064
 H         -3.8714888111        2.3878968602        2.0277465761
 H         -5.5865414228        2.0234603658        1.8904082240
 H         -8.3578267411        1.0742804342       -0.1949531592
 H         -7.2253548177        1.6605179687        1.0033739213
 H         -6.6502354551       -0.3824602671       -1.1924187036
 H         -7.0418604093       -0.7743547419        0.4701458104
 O         -4.6344797476       -1.3196539724       -0.3055349116
 C         -3.3213177346       -1.7488991646       -0.1610502001
 O         -3.1044502800       -2.8588514366       -0.6781084215
 H          1.3955893538       -0.0371652050        0.9122139194
 C          1.1085960400       -0.2331856187       -0.1104995047
 C         -0.1018018334       -0.8508668065       -0.3866794802
 C         -0.4571063735       -1.0638314369       -1.7149770794
 C          0.3893748247       -0.6736095644       -2.7367582139
 C          1.6102512498       -0.0855574782       -2.4563142457
 C          1.9712897520        0.1376373093       -1.1328593366
 N          3.1956031293        0.7422551033       -0.8093278771
 S          3.9931940281        0.1928192133        0.5764282015
 O          3.8925948049       -1.2462556601        0.6605122035
 O          3.5099456504        0.9340286414        1.7141935027
 C          5.6687184684        0.6792568958        0.2102608333
 C          6.5451493653       -0.2510429560       -0.3157205593
 C          7.8380841264        0.1444941679       -0.6212097809
 C          8.2291573666        1.4564329966       -0.3996899440
 C          7.3381297826        2.3785961889        0.1294463265
 C          6.0444493501        1.9897759086        0.4386527516
 H          5.3207606111        2.6676310102        0.8606902931
 H          7.6467184474        3.3968470183        0.3030853640
 H          9.2357988270        1.7616797434       -0.6379765017
 H          8.5341262088       -0.5708180828       -1.0288331528
 H          6.1993271959       -1.2616720452       -0.4625378688
 H          3.8187345018        0.8230341687       -1.6011955239
 H          2.2752733582        0.2042315393       -3.2556319069
 H          0.1015690904       -0.8443744799       -3.7633106255
 H         -1.3960307663       -1.5493156340       -1.9356516400
 C         -0.9859724422       -1.2962073154        0.7499179453
 H         -0.6798688791       -0.7217762768        1.6400688182
 C         -0.7925161449       -2.7699041284        1.0810234861
 C         -0.1927770663       -3.7599927539        0.1332904040
 C          0.5822327018       -3.3154197641        1.3352634451
 H          0.7158746797       -4.0104647196        2.1507863699
 H          1.4267181496       -2.6589677599        1.1777072141
 H         -0.6120471383       -4.7542592957        0.1184815751
 H          0.1243718168       -3.4091516500       -0.8359662943
 H         -1.5861714656       -3.1430949839        1.7212401860
 O         -2.0732996540        1.1111826964        1.6587510706
