  62
        -98.93404712
 C         -1.9310997984       -0.8160266617        0.2500787026
 C         -2.1562410708        0.2448516349        1.1573576978
 C         -2.2797141851        1.5840305379        0.5705387960
 C         -2.1405659990        1.7311833797       -0.7597008608
 C         -2.2786618344        3.0318033811       -1.4964816485
 C         -3.7250494753        3.2628354582       -1.9563960155
 C         -4.7632174996        3.0538191932       -0.8540037492
 H         -4.7645392993        2.0010150890       -0.5627853053
 H         -5.7431152985        3.2708883904       -1.2843070634
 C         -4.5479815585        3.9229248854        0.3928250593
 H         -5.5077060057        4.3475363028        0.6943793517
 H         -3.8847930542        4.7550206230        0.1543320867
 C         -3.9954156708        3.1685099003        1.6035963768
 H         -4.6030624540        2.2796681855        1.7909276011
 H         -4.0847488686        3.8168762034        2.4792276976
 C         -2.5272215869        2.7337150178        1.5064827198
 H         -2.2146211958        2.3849807214        2.4955229336
 H         -1.9040977843        3.5891283461        1.2358517911
 H         -3.9436185544        2.5669374691       -2.7694108733
 H         -3.8045301387        4.2790944391       -2.3464978080
 H         -1.9561971200        3.8438747584       -0.8474834312
 H         -1.6254463493        2.9981715260       -2.3700582897
 O         -1.9082316918        0.6922210269       -1.5994201687
 C         -1.7839167421       -0.6036695079       -1.1213593499
 O         -1.5600973888       -1.4524349059       -2.0035405112
 H          0.5196293400       -1.0474349867        1.1546064211
 C          0.6613965007       -1.9389813707        0.5585905940
 C         -0.4357232912       -2.7493023741        0.2691421703
 C         -0.2090825684       -3.8880582456       -0.4915765480
 C          1.0613586379       -4.1801896840       -0.9630142613
 C          2.1299755488       -3.3424072598       -0.7147534388
 C          1.9207619005       -2.2029521544        0.0545212771
 N          2.9721027069       -1.3126090100        0.3405081574
 S          2.5955402674        0.3350656866        0.3909702442
 O          2.1604928077        0.6663456063        1.7257539626
 O          1.6964111791        0.6837838625       -0.6860470772
 C          4.2107364818        1.0359882918        0.1025690620
 C          4.5672507798        1.4046435920       -1.1808088879
 C          5.8376818489        1.9120201028       -1.4044595936
 C          6.7263639292        2.0376738892       -0.3472659661
 C          6.3539676136        1.6641727557        0.9355736474
 C          5.0849627421        1.1571029771        1.1662600967
 H          4.7462205895        0.8611809427        2.1453643126
 H          7.0464578480        1.7658162485        1.7554171375
 H          7.7145025993        2.4318254904       -0.5242351565
 H          6.1279993863        2.2061539184       -2.4001768853
 H          3.8388456531        1.2957889555       -1.9686754665
 H          3.7916112772       -1.4853849138       -0.2263553033
 H          3.1096192807       -3.5584484311       -1.1130236442
 H          1.2102413611       -5.0682423642       -1.5587062765
 H         -1.0123303558       -4.5499057251       -0.7582219498
 C         -1.7444176667       -2.2231389237        0.8082950905
 H         -1.5973088997       -2.0701344092        1.8918748390
 C         -3.0521832612       -2.9873348343        0.6764431395
 C         -3.5098892430       -3.7203303745       -0.5453266493
 C         -3.2004616499       -4.4785508061        0.7127823885
 H         -4.0320481750       -4.8821220136        1.2716613148
 H         -2.3123564216       -5.0862137041        0.7627663483
 H         -2.8382573913       -3.7636652798       -1.3870187467
 H         -4.5460296919       -3.6135895596       -0.8332516611
 H         -3.8270748153       -2.4309824226        1.2007090833
 O         -2.2486332450        0.0762556891        2.4058520720
