  62
        -98.93893150
 C         -1.6443505439       -1.1317965943       -0.6804702778
 C         -1.6614553314        0.1042912817        0.0069584828
 C         -2.9567964596        0.5202143979        0.5798791615
 C         -4.0373333669       -0.2661358875        0.4218756471
 C         -5.4613935972       -0.1204149386        0.9170741050
 C         -5.9644734838        1.2087125155        1.4741349253
 C         -6.0730582459        2.3338073358        0.4454054287
 H         -6.8857837195        2.0950793147       -0.2451746260
 H         -6.3427878808        3.2521492036        0.9715155765
 C         -4.8202812770        2.5884701009       -0.3889642587
 H         -4.5978645494        1.7077386889       -0.9945961288
 H         -5.0399610888        3.4074694054       -1.0791513494
 C         -3.5727945291        2.9723008394        0.4045650300
 H         -3.7925145913        3.8284933869        1.0454106841
 H         -2.8073542940        3.2797701293       -0.3127884582
 C         -2.9703773343        1.8531502016        1.2716832297
 H         -1.9246379395        2.1046176747        1.4741327728
 H         -3.4754947039        1.7811487223        2.2321745207
 H         -6.9685303059        1.0215066459        1.8646738469
 H         -5.3533785149        1.5194896522        2.3165140111
 H         -6.0989980807       -0.4210186291        0.0795392744
 H         -5.5860046391       -0.8881112646        1.6888975226
 O         -3.9678602374       -1.4561562173       -0.2448752338
 C         -2.7884624611       -1.9205843988       -0.7962024938
 O         -2.8872593995       -3.0301010207       -1.3582703816
 H          2.0206684593       -0.5290845651       -0.4974531871
 C          1.7315378013       -1.3562858709        0.1249159501
 C          0.5674398733       -2.0547896435       -0.1476224311
 C          0.2251996453       -3.1292742683        0.6705196558
 C          1.0314435302       -3.4907430600        1.7319529699
 C          2.1846894027       -2.7764266109        2.0119428578
 C          2.5308392396       -1.6989595008        1.2078059603
 N          3.7002129566       -0.9543417605        1.4478057840
 S          3.5512194195        0.7152661735        1.6168335393
 O          4.7785390804        1.1105504669        2.2787639119
 O          2.3289344689        1.0667362660        2.3000725583
 C          3.5747565446        1.3446049323       -0.0469811766
 C          4.7391003430        1.1910580501       -0.7740707569
 C          4.7840593931        1.6685323271       -2.0737623601
 C          3.6709268963        2.2916607813       -2.6182937395
 C          2.5120301170        2.4414463255       -1.8719926418
 C          2.4573951312        1.9642181597       -0.5710798135
 H          1.5614373156        2.0305892209        0.0270289477
 H          1.6436816010        2.9204889097       -2.2965652066
 H          3.7041936674        2.6618337092       -3.6311279589
 H          5.6825398569        1.5527863961       -2.6581871248
 H          5.5817623358        0.7075009175       -0.3087777272
 H          4.2704601162       -1.3207388249        2.1977718036
 H          2.8096199810       -3.0503954311        2.8489785194
 H          0.7577482857       -4.3298713857        2.3540623502
 H         -0.6850214318       -3.6746544243        0.4599913553
 C         -0.3588010830       -1.6799257294       -1.2797913387
 H         -0.6427077474       -2.6043885806       -1.8019517658
 C          0.2499946814       -0.7174767892       -2.2768801502
 C          1.2978323142       -1.2031485083       -3.2315505282
 C         -0.0726245590       -0.8612281480       -3.7322266263
 H         -0.1992749277        0.0341000787       -4.3218623390
 H         -0.7289499181       -1.6693932506       -4.0211788191
 H          2.1156588997       -0.5421214311       -3.4755356098
 H          1.5726859825       -2.2457632726       -3.1807480618
 H          0.3480149183        0.2882316733       -1.8883910311
 O         -0.6505520568        0.8409210166        0.1420370580
