  62
        -98.94066708
 C          1.9514788495        0.8521947394        0.7125376302
 C          1.8668873194        0.1866723294       -0.5360865898
 C          2.0836346496       -1.2655760506       -0.5007855398
 C          2.2565093698       -1.8921548905        0.6754544702
 C          2.4470638800       -3.3715869405        0.8748966201
 C          3.8928961900       -3.8500618203        0.6817945999
 C          4.3861036698       -3.8667679703       -0.7656141502
 H          5.3245874598       -4.4244061002       -0.7772974503
 H          3.6732518697       -4.4135983504       -1.3833571501
 C          4.6304409495       -2.4760065203       -1.3675476803
 H          4.6925114696       -1.7378023603       -0.5646798803
 H          5.5914704394       -2.4668914002       -1.8863847704
 C          3.5688070193       -2.0252279104       -2.3709969401
 H          3.5849137792       -2.6832615004       -3.2424701601
 H          3.8196884691       -1.0156605104       -2.7060939501
 C          2.1417809294       -1.9965123706       -1.8076372998
 H          1.4985209092       -1.4613275707       -2.5105490297
 H          1.7592514095       -3.0105075006       -1.6915651797
 H          4.5512261001       -3.2202528103        1.2846178298
 H          3.9532390902       -4.8671146403        1.0759175299
 H          2.1456190402       -3.5859663205        1.9027444802
 H          1.7855159500       -3.9163386906        0.2003069503
 O          2.2563235800       -1.2277463005        1.8632948201
 C          2.1081989798        0.1489318295        1.9080710502
 O          2.1297504100        0.6253308995        3.0627289701
 H         -0.6510596104        1.2150764192        1.1025743206
 C         -0.6782391207        1.9781544792        0.3360972106
 C          0.4725739792        2.7037658993        0.0522009504
 C          0.4157309889        3.6832412693       -0.9293866796
 C         -0.7605385212        3.9037418791       -1.6256822094
 C         -1.8897112511        3.1480280090       -1.3722050892
 C         -1.8448517208        2.1727871490       -0.3812746692
 N         -2.9755907307        1.3915664889       -0.0812217790
 S         -2.7296056104       -0.2046250511        0.4124532510
 O         -2.4665338101       -0.2128056610        1.8314067510
 O         -1.7501110005       -0.8566389210       -0.4268350391
 C         -4.3529951404       -0.8771309612        0.1043913213
 C         -4.5905174905       -1.5591082013       -1.0739818986
 C         -5.8648439805       -2.0446546214       -1.3227012084
 C         -6.8751969504       -1.8378431615       -0.3955804982
 C         -6.6214037902       -1.1523709115        0.7832793317
 C         -5.3492885302       -0.6654217513        1.0386773815
 H         -5.1009201701       -0.1349626113        1.9430723314
 H         -7.4084271901       -0.9960897316        1.5031500719
 H         -7.8660528904       -2.2156326516       -0.5920733880
 H         -6.0636684906       -2.5804905615       -2.2367789484
 H         -3.7710156906       -1.7013909012       -1.7603593588
 H         -3.6917503008        1.4522207688       -0.7924848488
 H         -2.7966666812        3.3037826489       -1.9364384190
 H         -0.7907167414        4.6617669991       -2.3937465594
 H          1.2980433488        4.2522919193       -1.1720351198
 C          1.7146022794        2.3491505094        0.8331381002
 H          1.4948247596        2.5135114194        1.9019369902
 C          2.9202897092        3.2141698495        0.4997278600
 C          4.3130548893        2.6749839897        0.6295246997
 C          3.7550504791        2.9905201796       -0.7239142802
 H          4.1397469789        3.8551773097       -1.2448623903
 H          3.4770336490        2.1753591996       -1.3721875601
 H          5.0765734693        3.3197456698        1.0383471696
 H          4.4206006295        1.6370707897        0.9109971497
 H          2.7762322692        4.2445366095        0.8103549800
 O          1.6316893991        0.7618262894       -1.6298742398
