  62
        -98.94356273
 C         -1.2959017700       -0.8264913091        0.1903961613
 C         -1.7629446802        0.2996710515        0.9140581703
 C         -2.8294141302        1.0840525709        0.2793785696
 C         -3.2306982200        0.7588557999       -0.9625704602
 C         -4.3438226699        1.4337643092       -1.7092418409
 C         -5.6881676199        0.7401816293       -1.4462870305
 C         -5.9796567401        0.4976578005        0.0346867796
 H         -6.9646691401        0.0306472704        0.0996894999
 H         -5.2566931501       -0.2213285192        0.4268108603
 C         -5.9555113203        1.7638674111        0.9022061986
 H         -6.8218235704        1.7495427116        1.5668546285
 H         -6.0467953103        2.6476145906        0.2696941579
 C         -4.7164886504        1.9021922919        1.7888879387
 H         -4.8999360806        2.7061347825        2.5065778380
 H         -4.5697447304        0.9813939324        2.3591861694
 C         -3.4076198104        2.2310088215        1.0592825386
 H         -3.5521074804        3.1006648009        0.4144988479
 H         -2.6585989105        2.4873738721        1.8145493985
 H         -5.6844514098       -0.2253500711       -1.9574261598
 H         -6.4818332899        1.3511629489       -1.8800037711
 H         -4.3952372901        2.4784365894       -1.4079383617
 H         -4.1205805398        1.3849319384       -2.7764693908
 O         -2.6881164398       -0.2644404606       -1.6684836193
 C         -1.7108542698       -1.0845842301       -1.1167987286
 O         -1.3105592797       -1.9765690307       -1.8873483178
 H          1.0147819300        0.2687725706       -0.4574449093
 C          1.4831116501       -0.6823277395       -0.6618078185
 C          0.9515169801       -1.8386474391       -0.1054909176
 C          1.5398346202       -3.0558576593       -0.4211976966
 C          2.6272226504       -3.1036000399       -1.2768851764
 C          3.1656146603       -1.9477028103       -1.8115123572
 C          2.5819409802       -0.7240225801       -1.5025568683
 N          3.0936481102        0.4780263496       -2.0147309392
 S          3.0669434299        1.8471920603       -1.0570594202
 O          1.7426815999        2.4171099002       -1.0256306809
 O          4.1015593499        2.6926390300       -1.6145962308
 C          3.5566069298        1.2809685216        0.5629909503
 C          2.6549269896        1.2614191124        1.6070378602
 C          3.0633265995        0.7636410134        2.8348541606
 C          4.3583486195        0.2977649236        2.9974543512
 C          5.2563947397        0.3334980829        1.9412532112
 C          4.8531496498        0.8266430618        0.7116927808
 H          5.5247493999        0.8799483512       -0.1296298392
 H          6.2649276897       -0.0240676670        2.0718290317
 H          4.6685052894       -0.0925845456        3.9538281515
 H          2.3600269994        0.7384575240        3.6521494805
 H          1.6510974196        1.6262946822        1.4529515797
 H          3.9538022202        0.3917282692       -2.5353211990
 H          4.0173915604       -1.9882883807       -2.4728174571
 H          3.0675178305       -4.0572222801       -1.5254511156
 H          1.1349152503       -3.9694332790       -0.0185125559
 C         -0.2166471100       -1.6767627985        0.8343596621
 H          0.1329270098       -1.0637729978        1.6833703317
 C         -0.7129442800       -2.9866297880        1.4281624831
 C         -2.1523629500       -3.1713368078        1.8032678530
 C         -1.5714306198       -3.9439099287        0.6590580437
 H         -1.4030422598       -5.0027334386        0.7916187346
 H         -1.8497085797       -3.6668988295       -0.3452500665
 H         -2.8356221401       -2.3647600181        1.5784539923
 H         -2.3819152901       -3.6955450471        2.7189158434
 H          0.0141179899       -3.4245708074        2.1049583735
 O         -1.3055907404        0.6324835124        2.0407827801
