  62
        -98.94846340
 C          1.2733769917        1.5763275301        0.1827307222
 C          1.6821838369        0.6663396918        1.1864868955
 C          2.9241001166       -0.0667067256        0.9222171354
 C          3.5812436254        0.1321816853       -0.2349261993
 C          4.8808104419       -0.5108443950       -0.6372004661
 C          4.7246307203       -1.9080500462       -1.2518367181
 C          4.3662115418       -3.0168568796       -0.2618532023
 H          4.5120100442       -3.9673735599       -0.7789939795
 H          5.0612891660       -2.9926029805        0.5783567219
 C          2.9238693826       -2.9600386831        0.2595118424
 H          2.4829416759       -3.9594792334        0.2295215407
 H          2.3107355342       -2.3388837303       -0.3982348159
 C          2.7807300401       -2.4507223514        1.6935128208
 H          3.2449724778       -3.1601433497        2.3830225581
 H          1.7127130173       -2.4064911703        1.9231179627
 C          3.3862303473       -1.0631863200        1.9421892245
 H          3.0511504673       -0.7152704226        2.9227255666
 H          4.4744783438       -1.1258707257        1.9462883133
 H          5.6758382928       -2.1649379125       -1.7241444978
 H          3.9643560039       -1.8633650139       -2.0354009474
 H          5.5454437297       -0.5644088953        0.2257327313
 H          5.3323346910        0.1453654138       -1.3845345258
 O          3.1363283139        0.9887308685       -1.1923484792
 C          1.9635805492        1.7115041798       -1.0213506445
 O          1.6577898238        2.4286614872       -1.9932762392
 O          1.0412377664        0.4821379691        2.2568904880
 C         -0.0015849409        2.3717394945        0.3875230544
 C         -1.0552976504        1.9602480957       -0.6120896222
 C         -1.9526204739        2.8493202781       -1.1908443259
 C         -2.9179186339        2.3927488075       -2.0719558297
 C         -3.0310590727        1.0471748124       -2.3721600040
 C         -2.1411483229        0.1493520986       -1.7939751477
 C         -1.1619540713        0.6142557417       -0.9318451955
 H         -0.4574683961       -0.0885905657       -0.5156645881
 N         -2.2150505626       -1.2272825268       -2.0545287910
 S         -1.8738815144       -2.3034885483       -0.8184683565
 O         -0.4529317535       -2.3807901163       -0.5969214771
 O         -2.5139500895       -3.5344348202       -1.2333435105
 C         -2.7217411072       -1.6361526092        0.6027422004
 C         -2.0276546630       -1.0631840393        1.6479871617
 C         -2.7414432847       -0.5051239629        2.6977556693
 C         -4.1266648533       -0.5292295754        2.6865741826
 C         -4.8102883028       -1.1179272594        1.6329919471
 C         -4.1033928905       -1.6737018472        0.5803231051
 H         -4.5973517060       -2.1494837105       -0.2513958300
 H         -5.8880407485       -1.1410122475        1.6281116440
 H         -4.6751197467       -0.0888715441        3.5042770826
 H         -2.1997347473       -0.0494242310        3.5114468197
 H         -0.9488311493       -1.0445811183        1.6389571969
 H         -3.0113383820       -1.5179048857       -2.6020821379
 H         -3.7906363357        0.6938264835       -3.0523372784
 H         -3.6012135836        3.0952741831       -2.5242099843
 H         -1.8910641847        3.8998205619       -0.9587290541
 H         -0.3651879972        2.0828733738        1.3862483547
 C          0.2839531954        3.8590490756        0.3867810966
 C         -0.5355400211        4.7881129414        1.2305467465
 C          0.8796551423        4.4801353356        1.6137479024
 H          1.6298146647        5.2468135471        1.4912172257
 H          1.0526198077        3.8334901134        2.4617487474
 H         -0.7569593309        5.7725176998        0.8465968637
 H         -1.3250948819        4.3572877959        1.8273775906
 H          0.6371919870        4.2132914875       -0.5749073979
