  62
        -98.94606287
 C         -1.5181781917       -1.1157538417        0.1951535330
 C         -2.5367706093       -0.6324453949        1.0532364537
 C         -3.0575659876        0.7071385090        0.7547122769
 C         -2.5063859682        1.4167187186       -0.2465863916
 C         -2.9619123415        2.7776783471       -0.6853851219
 C         -4.0276662995        2.6813448764       -1.7862368966
 C         -5.1661715383        1.7149242094       -1.4592608768
 H         -5.8727531184        1.7510927553       -2.2910823995
 H         -4.7690485201        0.6981009898       -1.4181612419
 C         -5.9030918262        2.0229745848       -0.1484091405
 H         -5.6968369831        3.0483918134        0.1602724393
 H         -6.9781048722        1.9466780811       -0.3242197438
 C         -5.5720905123        1.0724081242        1.0037160540
 H         -5.6884636401        0.0379681690        0.6704880502
 H         -6.2976999836        1.2416760989        1.8036843870
 C         -4.1740649000        1.2263223080        1.6164859761
 H         -3.9998724565        2.2713132547        1.8826580470
 H         -4.1444359148        0.6308079958        2.5340227034
 H         -4.4334673665        3.6793676914       -1.9611513339
 H         -3.5449045247        2.3440385746       -2.7062742278
 H         -3.3577024478        3.3152627776        0.1743400880
 H         -2.0958986963        3.3193701615       -1.0701260198
 O         -1.4911048012        0.9470494044       -1.0110103944
 C         -0.9648769022       -0.3194135800       -0.8078348511
 O         -0.0311793172       -0.6055154301       -1.5815692236
 H          0.5458574536       -0.7451759218        1.8136467357
 C          1.1609388720       -1.4313206145        1.2484856930
 C          0.5630623387       -2.4255240118        0.4824429814
 C          1.3813119933       -3.2885970718       -0.2344830602
 C          2.7581510203       -3.1456779927       -0.1964180147
 C          3.3450675694       -2.1278429130        0.5317938031
 C          2.5337112939       -1.2587277056        1.2520945406
 N          3.0720105600       -0.1741965271        1.9807494642
 S          2.7220176144        1.3522206182        1.3762483910
 O          3.3919814718        2.2753919662        2.2682839039
 O          1.2969672433        1.5127836024        1.2451309956
 C          3.5313098667        1.3826832656       -0.2138896598
 C          2.9345920523        0.7608695123       -1.2923344764
 C          3.6200756695        0.7225357724       -2.4979011274
 C          4.8766427640        1.2977472875       -2.6039586568
 C          5.4604223781        1.9189512601       -1.5097345141
 C          4.7855619282        1.9573745561       -0.3008740747
 H          5.1967508808        2.4298138686        0.5767201974
 H          6.4366907569        2.3685373590       -1.5939408269
 H          5.4023947469        1.2622281845       -3.5451102625
 H          3.1592963306        0.2375170613       -3.3434934999
 H          1.9526074536        0.3234942776       -1.1932253171
 H          4.0711053638       -0.2426496627        2.1246052772
 H          4.4170107387       -1.9982975519        0.5390239594
 H          3.3803788704       -3.8237696781       -0.7601201619
 H          0.9426706319       -4.0628898694       -0.8419702146
 C         -0.9439419561       -2.4919209410        0.4822192631
 H         -1.2711853539       -2.7119413041        1.5130948919
 C         -1.5048312883       -3.6003879987       -0.3968857704
 C         -2.8314138708       -3.4513256914       -1.0782752964
 C         -1.5720227105       -3.4734778549       -1.8884746390
 H         -1.3661458045       -4.3480815442       -2.4879600530
 H         -1.2234219868       -2.5502605546       -2.3236065477
 H         -3.4870949238       -4.3083637707       -1.1161373745
 H         -3.3499179295       -2.5101714909       -0.9640629004
 H         -1.2824302518       -4.5862779136       -0.0005139221
 O         -2.9857612244       -1.2928052392        2.0298567952
