  62
        -98.94449498
 C         -1.9590191075        1.1171155961        0.1611344896
 C         -2.4277511352       -0.0344013101        0.8381592341
 C         -3.8803347280       -0.2477131491        0.7948734747
 C         -4.6709546437        0.6416378112        0.1672258325
 C         -6.1702893680        0.5728436769        0.0599928338
 C         -6.6739719708       -0.3128889442       -1.0878973312
 C         -6.5046677516       -1.8173973516       -0.8723142135
 H         -6.9313806442       -2.0956550858        0.0918159263
 H         -7.0906911195       -2.3194251885       -1.6447457542
 C         -5.0529998361       -2.3099059032       -0.9564116403
 H         -5.0080868669       -3.2087628154       -1.5754027103
 H         -4.4383099932       -1.5524690288       -1.4481083674
 C         -4.4217282769       -2.6575401264        0.3919134210
 H         -4.9449629831       -3.5086795839        0.8335079423
 H         -3.3833079636       -2.9524817355        0.2188921360
 C         -4.4222636520       -1.5049409885        1.4045905577
 H         -3.7686404742       -1.7790808031        2.2364491939
 H         -5.4286880918       -1.3411644583        1.7893543815
 H         -7.7383626195       -0.1037881927       -1.2172936429
 H         -6.1630068927       -0.0170129856       -2.0069763990
 H         -6.5893451983        0.2215494495        1.0032449169
 H         -6.5164087075        1.5936373920       -0.1158198099
 O         -4.1813971497        1.7515280300       -0.4472677721
 C         -2.8195207581        2.0034428539       -0.4865016609
 O         -2.5044170295        3.0322286432       -1.1184542291
 O         -1.6793175114       -0.8424915872        1.4468623587
 C         -0.4715157577        1.4223766960        0.1232806093
 C          0.2695723174        0.2510100132       -0.4734340467
 C         -0.1269527561       -0.2143657805       -1.7255844406
 C          0.4958067245       -1.3010133013       -2.3061258337
 C          1.5371719471       -1.9407569009       -1.6560046588
 C          1.9456240809       -1.4818150949       -0.4101831790
 C          1.3177468910       -0.3862209858        0.1701364575
 H          1.6428842852       -0.0671480341        1.1453986434
 N          2.9844718192       -2.1288969189        0.2762608016
 S          4.1688825099       -1.2637233987        1.0736592220
 O          5.2160876350       -2.2307663117        1.3181037324
 O          3.6238739212       -0.6073769243        2.2336919918
 C          4.7224534636       -0.0618445432       -0.1215696185
 C          4.2329234565        1.2273162962       -0.0763651508
 C          4.6293577191        2.1276436534       -1.0529202186
 C          5.5019087017        1.7254563303       -2.0520355145
 C          5.9885100018        0.4270540902       -2.0809277843
 C          5.5931844463       -0.4782790044       -1.1100925758
 H          5.9575181431       -1.4925881883       -1.0896655078
 H          6.6713652849        0.1191085589       -2.8562843841
 H          5.8065215490        2.4295592892       -2.8102200840
 H          4.2541038735        3.1384240896       -1.0298758281
 H          3.5602289985        1.5049283666        0.7179871430
 H          3.3806578363       -2.9181454673       -0.2124001462
 H          2.0194230830       -2.7967876532       -2.1029231170
 H          0.1705461103       -1.6544869117       -3.2730174130
 H         -0.9433435265        0.2847631130       -2.2304988304
 H         -0.3562608991        2.2826658027       -0.5520992848
 C          0.0129836597        1.8189395109        1.5016090743
 C          1.1648692073        2.7649013817        1.6516726444
 C         -0.2256482860        3.2190491371        1.9781181306
 H         -0.4917341291        3.3730644633        3.0131218725
 H         -0.7164743682        3.8973394798        1.2950997615
 H          1.8591360998        2.6064711468        2.4640361425
 H          1.6146278280        3.1479933474        0.7478669577
 H         -0.0933843059        1.0232269140        2.2304246888
