  62
        -98.93213826
 C         -0.7727616894       -1.6701489796        0.5968300604
 C         -2.0643693395       -2.0557983894        0.1507048504
 C         -3.1501508392       -1.0696039491        0.2966348902
 C         -2.9192891190        0.0751883110        0.9622063200
 C         -3.8502896088        1.2109583712        1.3285603497
 C         -5.1547485287        1.4275628213        0.5639601196
 C         -4.9907738886        1.7658664410       -0.9165991004
 H         -5.9875094986        1.8370275211       -1.3580322005
 H         -4.5205414784        2.7485768209       -1.0043741406
 C         -4.1612341688        0.7763076707       -1.7320455302
 H         -3.1210295988        0.8014654405       -1.4001680502
 H         -4.1736168087        1.1085104804       -2.7739403203
 C         -4.6533857591       -0.6704487792       -1.6997069199
 H         -5.7115872991       -0.7056660791       -1.9657266899
 H         -4.0988994692       -1.2205728395       -2.4648409698
 C         -4.4548366893       -1.4100502190       -0.3630923898
 H         -5.2840572193       -1.2310790587        0.3176328402
 H         -4.4271263495       -2.4840553890       -0.5675765095
 H         -5.6564594486        2.2735944316        1.0417052394
 H         -5.8094522989        0.5687402215        0.6794118398
 H         -4.0936062289        1.0700161615        2.3875121397
 H         -3.2448855086        2.1184417511        1.2682553595
 O         -1.7058994490        0.3297412008        1.5253857699
 C         -0.6243896492       -0.5273664694        1.3904219202
 O          0.3669695909       -0.1595050795        2.0479732801
 H          1.4710789209       -0.3111264303       -0.5256284598
 C          2.1540929508       -0.8473090903        0.1146093603
 C          1.7432531205       -2.0201798501        0.7334025805
 C          2.6268410104       -2.6654421701        1.5899134107
 C          3.8860686905       -2.1446603403        1.8298460406
 C          4.2913903707       -0.9781435405        1.2104712204
 C          3.4160673309       -0.3262215005        0.3472406402
 N          3.8177529312        0.8415216593       -0.3071946600
 S          2.8311497014        1.7776065393       -1.2475235502
 O          2.3452116213        1.0139263591       -2.3718420601
 O          3.6538863116        2.9235466490       -1.5772915105
 C          1.4647235315        2.3388680898       -0.2511993904
 C          0.2204658915        2.4359442299       -0.8394244904
 C         -0.8289134684        2.9669881603       -0.1086461506
 C         -0.6177508783        3.3816671805        1.1965096893
 C          0.6341008416        3.2638210004        1.7776971894
 C          1.6898303215        2.7443748300        1.0475279495
 H          2.6730016715        2.6441035699        1.4773388896
 H          0.7898208117        3.5710130006        2.7992906593
 H         -1.4336819083        3.7946106208        1.7692698392
 H         -1.8043937184        3.0500123604       -0.5625392006
 H          0.0964864815        2.0885296897       -1.8537714904
 H          4.6463290513        1.3032204092        0.0300371499
 H          5.2720707608       -0.5669962007        1.3938714803
 H          4.5577456804       -2.6520055103        2.5056843407
 H          2.3170552102       -3.5773301099        2.0801332409
 C          0.4044377804       -2.6291436999        0.4244310706
 H          0.2398684302       -3.4635382397        1.1300605508
 C          0.4333645503       -3.2763297602       -0.9640658192
 C          1.1375909105       -2.7222990906       -2.1635688193
 C          1.6640540602       -3.9524958805       -1.4877508491
 H          1.5550956700       -4.9044223806       -1.9855964589
 H          2.5765319302       -3.8529314406       -0.9188987091
 H          0.6448907505       -2.8328194107       -3.1193773993
 H          1.7094520807       -1.8108595007       -2.0846543495
 H         -0.5044095698       -3.7767319600       -1.1700835392
 O         -2.3360132997       -3.1901987094       -0.3281203793
