  62
        -98.94452647
 C         -1.8994037533       -0.8616225475        0.4180359399
 C         -2.1844717717        0.3085542759       -0.3266436097
 C         -3.4775751082        0.9471713818       -0.0453435316
 C         -4.2879151169        0.4464183188        0.9035895749
 C         -5.6198706005        1.0063304566        1.3225934981
 C         -6.7910265806        0.5598389067        0.4365975803
 C         -6.8341372983        1.1950072257       -0.9538118823
 H         -7.8124314771        0.9649464121       -1.3805714476
 H         -6.7679945583        2.2793694481       -0.8587368276
 C         -5.7466160225        0.6925746811       -1.9136187971
 H         -6.1935600214        0.4688852306       -2.8848918410
 H         -5.3271028230       -0.2410153922       -1.5318675316
 C         -4.6083607250        1.6836265320       -2.1565109199
 H         -3.8797659194        1.2123250813       -2.8209513919
 H         -4.9970075706        2.5720875838       -2.6592942409
 C         -3.8736081916        2.1252128751       -0.8840544933
 H         -2.9602260719        2.6479541762       -1.1785550210
 H         -4.4962341534        2.8098477936       -0.3085111845
 H         -6.7606405581       -0.5279006168        0.3397420323
 H         -7.7134005848        0.8208336533        0.9605662364
 H         -5.5710415164        2.0955144876        1.3423219657
 H         -5.8007983544        0.6483914387        2.3384882118
 O         -3.9628372163       -0.6565574768        1.6273962400
 C         -2.7859270399       -1.3432544748        1.3884570306
 O         -2.6387531705       -2.3593036237        2.0965756814
 O         -1.4176885954        0.8200484049       -1.1870951853
 C         -0.6334152194       -1.6860474766        0.2375669665
 C          0.5421727370       -1.0617048883        0.9501429904
 C          1.1814546203       -1.7246392665        1.9907356918
 C          2.2782469085       -1.1602611178        2.6193335996
 C          2.7603077966        0.0736275641        2.2213542786
 C          2.1233999160        0.7453501172        1.1860500635
 C          1.0280850363        0.1764406027        0.5544193289
 H          0.5335551792        0.7065029194       -0.2460682223
 N          2.6213921810        1.9947126122        0.7587059313
 S          4.2134258871        1.9730775573        0.2307392432
 O          5.0924068029        1.9833660605        1.3732598555
 O          4.3425313684        3.0902166414       -0.6778386900
 C          4.3630759938        0.4230961042       -0.6393503104
 C          5.0436018826       -0.6281630460       -0.0600075854
 C          5.0731438939       -1.8484028825       -0.7158129230
 C          4.4213140826       -1.9962399667       -1.9299391918
 C          3.7443932976       -0.9291568475       -2.5002989512
 C          3.7093710458        0.2922847285       -1.8484460825
 H          3.1935443992        1.1434584795       -2.2638432446
 H          3.2394284965       -1.0441642552       -3.4461843685
 H          4.4407462433       -2.9487180203       -2.4358045630
 H          5.5989749432       -2.6801916574       -0.2756931676
 H          5.5359985604       -0.4701217303        0.8853070428
 H          2.0318023390        2.4293105607        0.0623807492
 H          3.6175791874        0.5271099877        2.6923449807
 H          2.7636282408       -1.6869978938        3.4266290293
 H          0.8053907750       -2.6845935338        2.3133351444
 H         -0.8409485819       -2.6507605750        0.7188748499
 C         -0.2934177144       -1.9401691658       -1.2194185508
 C          0.6086343653       -3.0851765435       -1.5632446632
 C         -0.8497215271       -3.1509345701       -1.9030973228
 H         -1.1458840578       -3.0672695635       -2.9380686525
 H         -1.4813283249       -3.8074579754       -1.3219947933
 H          1.3189002204       -2.9565177461       -2.3647167929
 H          0.9677918946       -3.6989831991       -0.7514199753
 H         -0.2064204943       -1.0350668096       -1.8052054525
