  62
        -98.94666515
 C         -1.4625266235       -1.4616734268       -0.4287944141
 C         -2.7276508956       -1.3915475856        0.2069758723
 C         -3.5359428220       -0.2070961924       -0.0997907097
 C         -3.0554295433        0.7283184217       -0.9393084367
 C         -3.7689295128        1.9833260028       -1.3652951926
 C         -3.6385772432        3.1514954133       -0.3780754156
 C         -4.4321682570        3.0010191179        0.9200843465
 H         -4.4216190869        3.9733108848        1.4168639592
 H         -5.4713975766        2.7676536947        0.6865385415
 C         -3.8702147135        1.9473585022        1.8849356540
 H         -2.8444260370        1.7003214111        1.6011786286
 H         -3.8324595783        2.3604590368        2.8954649794
 C         -4.6846331611        0.6556929631        1.9526664746
 H         -4.1805643866       -0.0330916877        2.6354506410
 H         -5.6759077092        0.8670254167        2.3599311941
 C         -4.8514173622       -0.0528630448        0.6020821233
 H         -5.2494770065       -1.0536739940        0.7868619528
 H         -5.5565116814        0.4928714681       -0.0245997399
 H         -3.9894722722        4.0505856613       -0.8899811313
 H         -2.5831455280        3.2943476878       -0.1385384470
 H         -3.3260575703        2.2840837151       -2.3171285085
 H         -4.8243837359        1.7642041850       -1.5302591904
 O         -1.8407165762        0.6196778524       -1.5368889636
 C         -1.0071030183       -0.4612268534       -1.2891413271
 O          0.0776002826       -0.4117707570       -1.8981256658
 H          1.9258116535       -1.8792072201       -0.9611289647
 C          1.7856600228       -1.7290099096        0.0972160479
 C          0.5948144341       -2.1078502854        0.6977286851
 C          0.4352562572       -1.8813078437        2.0620625041
 C          1.4408465895       -1.2895716384        2.8035978408
 C          2.6202906993       -0.8929024297        2.1964363228
 C          2.7824041982       -1.1046224273        0.8341473196
 N          3.9634348020       -0.6629971824        0.1973802863
 S          4.2412732336        0.9894066669        0.2335426434
 O          5.2904748359        1.2228456110       -0.7330294002
 O          4.5316715862        1.3805647135        1.5904645773
 C          2.7252626588        1.7566134959       -0.3076895704
 C          1.7300219928        2.0110622236        0.6137756163
 C          0.5415830199        2.5705653428        0.1744707919
 C          0.3696823713        2.8657635523       -1.1682797451
 C          1.3775862209        2.6001031254       -2.0806362719
 C          2.5653793585        2.0348725402       -1.6495833654
 H          3.3739187353        1.8135442098       -2.3279443553
 H          1.2348102250        2.8204816732       -3.1262420149
 H         -0.5585830093        3.2957903585       -1.5106308835
 H         -0.2479495115        2.7675056703        0.8839110175
 H          1.8994221070        1.7743282923        1.6517218090
 H          4.0258308425       -0.9782865232       -0.7611996974
 H          3.4044759484       -0.4026441161        2.7503536498
 H          1.3043895635       -1.1270124731        3.8621746284
 H         -0.4972717335       -2.1622522578        2.5314861645
 C         -0.5645023340       -2.6444904577       -0.1025319927
 H         -1.1630723981       -3.2962595046        0.5474643288
 C         -0.1592155675       -3.4232364107       -1.3354858281
 C          0.4549941984       -4.7808574057       -1.1742302529
 C         -0.9352145072       -4.6465867630       -1.7170095081
 H         -1.1018270455       -4.8442343705       -2.7653451672
 H         -1.7616860705       -4.9326982068       -1.0831953073
 H          1.2448135109       -5.0745462073       -1.8487106142
 H          0.5732556142       -5.1572412676       -0.1693798754
 H          0.1995245025       -2.7970824856       -2.1430832460
 O         -3.1613731356       -2.2791760112        0.9885887741
