  62
        -98.93232275
 C         -2.4674355649       -0.7591638351        0.0599260835
 C         -2.8507997202        0.3781111500        0.8130659754
 C         -3.9852753207        1.1671789160        0.3051103554
 C         -4.5816138145        0.7831160059       -0.8366457522
 C         -5.7772683383        1.4046612815       -1.5042613400
 C         -7.0748309995        0.7130677980       -1.0526242461
 C         -7.7017745104        1.2847844697        0.2183625094
 H         -8.1196300036        2.2698873259        0.0004957692
 H         -8.5321113223        0.6304867486        0.4939362762
 C         -6.7557297564        1.4089700180        1.4155014871
 H         -6.1399171550        0.5109405958        1.4924082781
 H         -7.3648925134        1.4610122306        2.3200748196
 C         -5.8572913356        2.6529574017        1.3485947424
 H         -6.2249949139        3.3171804913        0.5668281982
 H         -5.9351362718        3.2065382361        2.2866979444
 C         -4.3649739385        2.3693519041        1.1260238291
 H         -3.8949407139        3.2547267159        0.6847254918
 H         -3.8768097281        2.2086223808        2.0925776555
 H         -6.8564848348       -0.3484669767       -0.9103367405
 H         -7.8104620344        0.7898141937       -1.8558532770
 H         -5.8136731011        2.4731129637       -1.3139015572
 H         -5.6523732166        1.2421907155       -2.5768362587
 O         -4.1776155464       -0.3103939495       -1.5368140583
 C         -3.1187798884       -1.1068220883       -1.1241791379
 O         -2.8820568145       -2.0579523844       -1.8896987346
 H          0.8919848659       -0.8006157055        1.9655927350
 C          1.0384576054       -0.7219248674        0.8966147903
 C          0.0029278805       -1.0674236644        0.0412618849
 C          0.2001933963       -0.9423337227       -1.3305178670
 C          1.4088863599       -0.4865489982       -1.8241842689
 C          2.4387353303       -0.1394547277       -0.9667386711
 C          2.2517305105       -0.2565907173        0.4036373996
 N          3.2823669658        0.1147598131        1.2798944257
 S          4.8456109256       -0.4145584527        0.9803784115
 O          4.8480217554       -1.6771152975        0.2793282919
 O          5.5012176804       -0.3919539293        2.2693133812
 C          5.5421894002        0.8606681815       -0.0481185628
 C          5.5090894460        2.1616950713        0.4141736213
 C          6.0548068674        3.1645512655       -0.3709315279
 C          6.6246918733        2.8510243200       -1.5960177063
 C          6.6545496739        1.5392390340       -2.0437709216
 C          6.1087149448        0.5314672876       -1.2638505604
 H          6.1048679588       -0.5014487262       -1.5740950496
 H          7.0987728630        1.2974528997       -2.9959860778
 H          7.0483046675        3.6338471914       -2.2052035333
 H          6.0337153483        4.1858829084       -0.0261258739
 H          5.0612162312        2.3640155310        1.3728005304
 H          3.0456727307        0.0296914304        2.2575153832
 H          3.3802323558        0.2184290225       -1.3498176538
 H          1.5503829300       -0.3968528737       -2.8906536893
 H         -0.6022572596       -1.2100677612       -2.0014977023
 C         -1.3033330786       -1.5681491347        0.6028959229
 H         -1.2976492810       -1.3532608591        1.6836563073
 C         -1.4828388889       -3.0715328067        0.4469954273
 C         -0.6734011837       -3.9191931073       -0.4828081499
 C         -0.4473685994       -4.0094311483        0.9947202234
 H         -0.7731925103       -4.8946202799        1.5196210313
 H          0.4614881494       -3.5742668783        1.3841834320
 H          0.0850086250       -3.4435679063       -1.0840972997
 H         -1.1791320621       -4.7295383226       -0.9849876155
 H         -2.5190839901       -3.3670323489        0.5773042184
 O         -2.2714208239        0.7133728451        1.8825034659
