  62
        -98.94528242
 C         -2.2593267967       -0.6367248051       -0.1690600420
 C         -1.3734581696       -0.9580568372        0.8826753005
 C         -0.6092311151       -2.2113671225        0.7462830356
 C         -0.7578027379       -2.9387230888       -0.3760330000
 C         -0.0184892016       -4.1983072181       -0.7333732380
 C          1.4142148073       -3.9212344388       -1.2345746352
 C          2.1309162828       -2.7471966629       -0.5661742979
 H          1.5021051841       -1.8573771968       -0.6386713323
 H          3.0311462275       -2.5324176954       -1.1500864631
 C          2.5585368067       -2.9737024494        0.8829335891
 H          2.9653573943       -2.0310386882        1.2580385434
 H          3.3618627077       -3.7147405392        0.8982596832
 C          1.4645031897       -3.4534480606        1.8340138522
 H          1.9018739826       -3.5015104921        2.8356295978
 H          1.1669475267       -4.4662166833        1.5750743092
 C          0.2433039881       -2.5431594252        1.9461643936
 H          0.5604546617       -1.5756265815        2.3465989691
 H         -0.4327954615       -2.9720349291        2.6967953812
 H          1.3544391037       -3.6909078947       -2.3009025221
 H          2.0080169589       -4.8293522137       -1.1172717785
 H         -0.5792761752       -4.6833682273       -1.5350837058
 H         -0.0153512280       -4.8682797952        0.1225680312
 O         -1.5992071952       -2.5753506716       -1.3837782616
 C         -2.3656163163       -1.4281939345       -1.3107608834
 O         -3.0950832150       -1.2243465619       -2.3042326063
 O         -1.2149553619       -0.2225831931        1.8942414073
 C         -3.0587606635        0.6535224564       -0.1076559275
 C         -2.1055467185        1.8169497403        0.0315109195
 C         -2.2769919193        2.8579566824        0.9347476713
 C         -1.3305219919        3.8643809042        1.0271033839
 C         -0.1914469687        3.8445262413        0.2428357989
 C         -0.0176670884        2.8139270748       -0.6748508327
 C         -0.9882849772        1.8323564481       -0.7938182332
 H         -0.8502763495        1.0394097778       -1.5139994924
 N          1.1239214022        2.7545104705       -1.4961301883
 S          2.0385966859        1.3581670178       -1.5956677740
 O          3.1056076541        1.6867627095       -2.5162539179
 O          1.2040811101        0.2421709636       -1.9580779063
 C          2.7365957090        1.1183298201        0.0301828437
 C          1.9033511950        0.8330295455        1.0933289671
 C          2.4588614132        0.6848522431        2.3552785799
 C          3.8275463353        0.8134590996        2.5328737970
 C          4.6511876155        1.0957349519        1.4535590777
 C          4.1019553548        1.2561386346        0.1918173499
 H          4.7009300241        1.4807365267       -0.6757321459
 H          5.7159799540        1.1934003026        1.5910481012
 H          4.2518334195        0.6912804775        3.5169192538
 H          1.8083788412        0.4691376593        3.1883972586
 H          0.8413345106        0.7236547693        0.9389978269
 H          1.7339751970        3.5557203000       -1.4141588221
 H          0.5573619203        4.6164072887        0.3362440169
 H         -1.4731616526        4.6664840235        1.7350921940
 H         -3.1452852566        2.8766783120        1.5726890451
 H         -3.5723364538        0.7409282462       -1.0765931171
 C         -4.0946208124        0.5846937280        0.9948579093
 C         -5.3757484893        1.3528276585        0.8773836528
 C         -5.3802831769       -0.1388182955        0.7347072186
 H         -5.8073266967       -0.7338360151        1.5279144141
 H         -5.5191091115       -0.5613331601       -0.2501929513
 H         -5.8050279419        1.7806832298        1.7707558602
 H         -5.5239606582        1.9457847664       -0.0125402169
 H         -3.6488484849        0.4750691751        1.9766653730
