  62
        -98.94022516
 C         -2.6063094488       -0.8681081846       -0.1490822694
 C         -2.1603519492        0.1335017369       -1.0480019379
 C         -2.7361699914        1.4724332004       -0.8460496490
 C         -3.6713941090        1.6733019202        0.0985437972
 C         -4.3821674611        2.9676222636        0.3889759055
 C         -3.6152011558        3.9071301132        1.3288552306
 C         -2.3880842745        4.5790518559        0.7121501741
 H         -2.6703504267        5.0600598119       -0.2248613963
 H         -2.0716869627        5.3649693554        1.4007156562
 C         -1.2053343480        3.6309245653        0.4687044501
 H         -1.3403327123        2.7160749950        1.0509109992
 H         -0.2821908741        4.0953880050        0.8221260344
 C         -0.9804868480        3.2505023114       -0.9949361523
 H         -0.7018708449        4.1395481015       -1.5660874328
 H         -0.1428081470        2.5483881202       -1.0358300220
 C         -2.1923573005        2.5972573666       -1.6736134771
 H         -2.9660591452        3.3422961719       -1.8617314556
 H         -1.8656061594        2.1802315613       -2.6295772480
 H         -3.3146532745        3.3445023196        2.2156406780
 H         -4.3098144897        4.6875369196        1.6480641728
 H         -4.5973622900        3.4835744210       -0.5471231864
 H         -5.3277774114        2.7003610669        0.8656045723
 O         -4.1128245692        0.6736226297        0.9077028370
 C         -3.5678741242       -0.5955785206        0.8288921447
 O         -4.0322220203       -1.3985161012        1.6645834032
 H          0.1660701269       -0.7496058985       -0.2241461491
 C          0.2377872895       -1.5471456385        0.4988543778
 C         -0.8222993849       -2.4248282464        0.6774015844
 C         -0.6965921522       -3.4458721918        1.6124793614
 C          0.4670591231       -3.5892929808        2.3461781446
 C          1.5258376404       -2.7208742564        2.1577556074
 C          1.4065020380       -1.6872794163        1.2336105019
 N          2.4516363924       -0.7668535870        1.0686055786
 S          2.6682521478        0.0140225644       -0.4120748629
 O          1.7815305792        1.1460327165       -0.4744295094
 O          2.6023044357       -0.9429700577       -1.4928746515
 C          4.3476044956        0.5819168888       -0.2097924744
 C          5.3858239554       -0.2156326539       -0.6532682079
 C          6.6900313195        0.2143584846       -0.4660467000
 C          6.9333252874        1.4275124252        0.1604254697
 C          5.8814771569        2.2183805698        0.5982513920
 C          4.5750559110        1.7940026853        0.4135165772
 H          3.7250498525        2.3771606050        0.7278768957
 H          6.0738858768        3.1627556750        1.0812900500
 H          7.9489570164        1.7602606319        0.3051814543
 H          7.5094348639       -0.3964491218       -0.8091378069
 H          5.1482654430       -1.1452357282       -1.1451985336
 H          3.3270451082       -1.0841188727        1.4613617348
 H          2.4356429521       -2.8313637516        2.7278272953
 H          0.5520687707       -4.3867323637        3.0685952802
 H         -1.5240671118       -4.1219972791        1.7687425467
 C         -2.0843013865       -2.2950215774       -0.1441508320
 H         -2.8636303780       -2.8940383352        0.3483178742
 C         -1.8470403537       -2.8698637633       -1.5278271611
 C         -1.9545611688       -4.3500718989       -1.7313916223
 C         -3.0007783820       -3.4372288778       -2.2958214192
 H         -3.0341278196       -3.2792690491       -3.3631825699
 H         -3.9712187951       -3.4183965519       -1.8208859806
 H         -2.2210534905       -4.9568203769       -0.8792983231
 H         -1.2645600969       -4.8247809980       -2.4119838798
 H         -1.0880258890       -2.3372819405       -2.0867048943
 O         -1.3382021296       -0.0518110399       -1.9843595529
