  62
        -98.94952028
 C         -1.5810553448       -0.8946823074       -0.7045313094
 C         -1.4035546466       -1.6819136650        0.4583837898
 C         -0.3552549299       -2.7103959776        0.3819993354
 C          0.3833276364       -2.8186349802       -0.7367621839
 C          1.4780805006       -3.8237272930       -0.9526290673
 C          2.8542225539       -3.2856130037       -0.5399145002
 C          2.8883925702       -2.6573114666        0.8534314698
 H          3.9230707857       -2.3683026179        1.0550691959
 H          2.2989405522       -1.7374460768        0.8636344067
 C          2.3851057111       -3.5708164240        1.9790553221
 H          2.4020203202       -4.6123293198        1.6540761753
 H          3.0667815166       -3.4828634249        2.8277394319
 C          0.9878893501       -3.2154964399        2.4919852794
 H          0.9353430204       -2.1386322022        2.6760493338
 H          0.8352374654       -3.7226520424        3.4488971416
 C         -0.1784344836       -3.6061816214        1.5749077821
 H         -0.0694120695       -4.6481388118        1.2641181514
 H         -1.1017781218       -3.5148639272        2.1547784076
 H          3.1677700768       -2.5303177940       -1.2646250824
 H          3.5692427753       -4.1099078171       -0.5823479221
 H          1.5026049279       -4.0749429503       -2.0148350212
 H          1.2469123992       -4.7226535493       -0.3839058251
 O          0.2207450449       -2.0058485075       -1.8129352341
 C         -0.7569135401       -1.0225003170       -1.8211810099
 O         -0.7919800534       -0.3411410194       -2.8657275190
 O         -2.1011635738       -1.5528770188        1.4986286969
 C         -2.6446830210        0.1898026829       -0.7353912241
 C         -2.3485455846        1.2031336471        0.3433424128
 C         -3.2967671834        1.6992709855        1.2276594239
 C         -2.9267628625        2.6000727186        2.2121316851
 C         -1.6124347639        3.0084867075        2.3460046451
 C         -0.6588882507        2.5271629522        1.4557079117
 C         -1.0401710237        1.6568714139        0.4495007107
 H         -0.2996296837        1.2892684593       -0.2458015913
 N          0.6868188245        2.9144150257        1.5416468286
 S          1.8772333996        1.7976389683        1.1648318880
 O          1.4897543592        0.4535527442        1.5204598959
 O          3.0643496712        2.3078646410        1.8204429276
 C          2.0877866048        1.9539548039       -0.5950976888
 C          2.1600746286        3.2194774433       -1.1427825515
 C          2.3395812483        3.3453213048       -2.5106950420
 C          2.4452108404        2.2118774363       -3.3029204331
 C          2.3787331915        0.9485882708       -2.7370901694
 C          2.2007913752        0.8175907139       -1.3696196402
 H          2.1259621177       -0.1481710661       -0.8945294292
 H          2.4450337994        0.0649058849       -3.3514061805
 H          2.5766139713        2.3103956977       -4.3689080169
 H          2.3911546768        4.3255232708       -2.9568094807
 H          2.0693782190        4.0759504767       -0.4957940617
 H          0.9249086916        3.4670489903        2.3523340708
 H         -1.3222968048        3.6881804575        3.1327123804
 H         -3.6709070233        2.9753285431        2.8983346835
 H         -4.3210556931        1.3721505839        1.1562094533
 H         -2.5409638593        0.6888524134       -1.7102895353
 C         -4.0288647716       -0.4156593938       -0.6393628431
 C         -5.2010230594        0.2802005946       -1.2617127308
 C         -4.6609143827       -0.9745169651       -1.8774199341
 H         -5.2395262677       -1.8823590218       -1.7960405256
 H         -4.1011341892       -0.8949962695       -2.7980978490
 H         -6.1554648418        0.2324187720       -0.7595038897
 H         -5.0155258872        1.2135526927       -1.7712404440
 H         -4.1835236871       -0.9545752951        0.2881867907
