  62
        -98.94309370
 C         -1.8703975848       -1.1122306489        0.3157969362
 C         -2.4280837001       -0.1015584633        1.1423113793
 C         -3.8526568899        0.1868344438        0.9476934719
 C         -4.5556910107       -0.5160793227        0.0415412893
 C         -6.0236049261       -0.3672655232       -0.2533688412
 C         -6.3520941464        0.7601972708       -1.2413021474
 C         -6.2047811761        2.1762120854       -0.6832108591
 H         -6.7613889083        2.2574904760        0.2509548816
 H         -6.6716991667        2.8539830632       -1.4005904072
 C         -4.7523825415        2.6204015547       -0.4592461982
 H         -4.6137992782        3.6284178318       -0.8567923670
 H         -4.0791524044        1.9633352421       -1.0149645204
 C         -4.3157260952        2.6487720655        1.0056925840
 H         -4.8928587425        3.4027493720        1.5458684030
 H         -3.2626843130        2.9406212141        1.0436581906
 C         -4.4619129903        1.3069545559        1.7353943051
 H         -5.5130138176        1.1019361666        1.9383894779
 H         -3.9275535355        1.3741205831        2.6863778833
 H         -7.3885973063        0.6238866669       -1.5581743299
 H         -5.7171058131        0.6484315205       -2.1231169740
 H         -6.5690619583       -0.2074935154        0.6771640681
 H         -6.3496511562       -1.3136267217       -0.6901477908
 O         -3.9928432997       -1.4910643869       -0.7161477296
 C         -2.6423823360       -1.8016225809       -0.6203218132
 O         -2.2874058005       -2.7001116016       -1.4067004377
 O         -1.7662853175        0.5223466141        2.0154064817
 C         -0.3904281840       -1.4097593198        0.4988817937
 C          0.4213973765       -0.7417718217       -0.5854344538
 C          0.4217369925       -1.2116814899       -1.8954488966
 C          1.1517393592       -0.5602667446       -2.8720775782
 C          1.9057938986        0.5584433550       -2.5631593940
 C          1.9104506505        1.0380345254       -1.2593749659
 C          1.1716438511        0.3860032018       -0.2810209417
 H          1.1693065815        0.7836440402        0.7229941272
 N          2.6608574724        2.1768294660       -0.9167425403
 S          3.6536774017        2.1069556340        0.4284362661
 O          2.8724551906        2.1772145826        1.6360690933
 O          4.6138586455        3.1701377052        0.2267255019
 C          4.4603847636        0.5218044920        0.2977027109
 C          4.0840768523       -0.5146291409        1.1265124599
 C          4.6875550744       -1.7523073730        0.9668356344
 C          5.6455438458       -1.9319047121       -0.0185008242
 C          6.0153681668       -0.8793510475       -0.8420286999
 C          5.4172157868        0.3599414618       -0.6855041365
 H          5.6880062930        1.2063105274       -1.2956766290
 H          6.7646142540       -1.0216856765       -1.6039444232
 H          6.1084817140       -2.8981077949       -0.1419443487
 H          4.4058120681       -2.5718550847        1.6086182951
 H          3.3352946151       -0.3309382320        1.8805239287
 H          3.1488301476        2.5970883196       -1.6948820136
 H          2.4762004967        1.0650664187       -3.3268669540
 H          1.1375155249       -0.9308177592       -3.8858353290
 H         -0.1798776459       -2.0708823796       -2.1461034769
 H         -0.1237719518       -0.9321804156        1.4518582949
 C         -0.0868180141       -2.8906492166        0.6040863533
 C          1.1749932697       -3.3228632714        1.2855552655
 C         -0.1502554833       -3.5529286610        1.9463368870
 H         -0.5335900707       -4.5605304580        2.0048182905
 H         -0.4118679201       -2.9378876686        2.7954930799
 H          1.7083715223       -4.1735451516        0.8909721535
 H          1.8090774821       -2.5475879635        1.6875147654
 H         -0.4273734982       -3.4663376330       -0.2458645506
