  62
        -98.94576185
 C         -2.4999333880       -0.0505643746       -0.5620726815
 C         -2.4589022121       -0.8361205994        0.6148047993
 C         -1.9833953677       -2.2142993625        0.4471440725
 C         -1.5585652269       -2.6327170223       -0.7581803064
 C         -1.0161956995       -3.9985756075       -1.0814189687
 C          0.4645549852       -4.1735320041       -0.7162279266
 C          0.7524519982       -4.3456814844        0.7762010151
 H          0.0898852660       -5.1073447481        1.1894694821
 H          1.7745826574       -4.7201856443        0.8614355664
 C          0.6352907823       -3.0532923511        1.5958416984
 H          1.4834588326       -2.9837000592        2.2818440602
 H          0.6923612963       -2.1904986093        0.9285762724
 C         -0.6316889260       -2.9438136616        2.4439248725
 H         -0.6376408737       -1.9599175892        2.9198503032
 H         -0.6136961370       -3.7020398276        3.2310671261
 C         -1.9401606949       -3.0953732432        1.6600697003
 H         -2.0866639583       -4.1365336043        1.3722314770
 H         -2.7628696028       -2.7928838502        2.3133613339
 H          0.8268270270       -5.0609249925       -1.2411651200
 H          1.0185389824       -3.3097311529       -1.0933384222
 H         -1.6116612823       -4.7611744635       -0.5778015479
 H         -1.1247070503       -4.1281663311       -2.1604910635
 O         -1.5931336666       -1.8400398300       -1.8632992394
 C         -2.0497185718       -0.5358993703       -1.7896596242
 O         -2.0236466187        0.0798001957       -2.8775856509
 H         -0.3165830546        1.4642137230       -1.0098582388
 C         -0.5299320555        1.9826556665       -0.0848462680
 C         -1.8477591728        2.1138835297        0.3370995939
 C         -2.1045092414        2.8087180113        1.5103822421
 C         -1.0568545780        3.3178808921        2.2602696587
 C          0.2558968241        3.1266903406        1.8717343645
 C          0.5204484802        2.4521642854        0.6835043272
 N          1.8366838397        2.2416759170        0.2411603359
 S          2.1551144710        0.8451325516       -0.6575484448
 O          1.9761887609        1.1562445180       -2.0549748468
 O          1.4063327892       -0.2763797854       -0.1418378482
 C          3.8925448378        0.6281198022       -0.3179368044
 C          4.2904804723       -0.3361504403        0.5881329932
 C          5.6415681927       -0.4807343387        0.8630888598
 C          6.5655572932        0.3394485083        0.2335493097
 C          6.1508172122        1.3028863851       -0.6743905185
 C          4.8020065163        1.4513654530       -0.9554009668
 H          4.4328038485        2.1771047469       -1.6611982841
 H          6.8722898648        1.9365020552       -1.1643792233
 H          7.6160651455        0.2247953778        0.4490676776
 H          5.9663502339       -1.2317310191        1.5649721050
 H          3.5348900902       -0.9538185784        1.0470677299
 H          2.5297087856        2.4029621677        0.9587959993
 H          1.0701833228        3.4933743446        2.4778788458
 H         -1.2671391755        3.8496997698        3.1758655705
 H         -3.1198068797        2.9328560878        1.8489804079
 C         -2.8995779834        1.4157831549       -0.4917260046
 H         -2.8371836138        1.7980677824       -1.5211295582
 C         -4.3126563917        1.5914060545        0.0171673721
 C         -5.0691337085        2.8442497971       -0.3046586451
 C         -5.4470419176        1.5510363686       -0.9603736922
 H         -6.3660130818        1.0689395113       -0.6628295778
 H         -5.1991106868        1.4121867159       -2.0029481359
 H         -4.5682010188        3.5885562912       -0.9051633104
 H         -5.7333258464        3.2522012092        0.4419365632
 H         -4.4700751694        1.1294600651        0.9842010850
 O         -2.8110726673       -0.4191618012        1.7496493996
