  62
        -98.93232213
 C         -2.4542005552       -0.9864842594        0.3312660136
 C         -2.8364523307        0.2072949517        0.9974394866
 C         -4.2255263614        0.6597678633        0.8206603161
 C         -5.0590932465       -0.0683765497        0.0586311271
 C         -6.5233876266        0.1584970933       -0.2236222242
 C         -6.9795386781        1.5974517054       -0.4966435015
 C         -5.9561529182        2.4703505198       -1.2373212437
 H         -5.1431871715        1.8509112575       -1.6200948712
 H         -6.4424858357        2.9371044280       -2.0958673450
 C         -5.3776417630        3.5846677832       -0.3621392539
 H         -6.1887990635        4.0347000451        0.2143703048
 H         -4.9659872060        4.3623773613       -1.0098478179
 C         -4.2639386182        3.1566849895        0.5930091914
 H         -3.3613119616        2.9116236851        0.0260556681
 H         -4.0186738393        4.0110732311        1.2286311214
 C         -4.5889192280        1.9527517977        1.4924762767
 H         -3.9560010824        2.0173839768        2.3818294744
 H         -5.6299396877        1.9645149416        1.8061885158
 H         -7.2453498989        2.0805501904        0.4424387313
 H         -7.8957914662        1.5304667562       -1.0856683535
 H         -6.7443530879       -0.4667528191       -1.0920362201
 H         -7.0957465872       -0.2450460881        0.6167974465
 O         -4.6521044267       -1.2059769929       -0.5677805173
 C         -3.3577004623       -1.6907841487       -0.4635913825
 O         -3.1706862920       -2.7335466958       -1.1215606177
 H          1.2722800166       -0.0542740623        0.7227544498
 C          1.0659875160       -0.3683210311       -0.2902731815
 C         -0.0972274253       -1.0660764569       -0.5800084773
 C         -0.3445866031       -1.4380357412       -1.8972542626
 C          0.5585977634       -1.1178052225       -2.8944051470
 C          1.7333545434       -0.4495383097       -2.5969734279
 C          1.9881639870       -0.0717319868       -1.2841072921
 N          3.1651663705        0.6133246179       -0.9439726548
 S          3.8809677698        0.2516174225        0.5438538236
 O          3.8054671192       -1.1692721279        0.7957556916
 O          3.3116256669        1.1093521398        1.5530121686
 C          5.5682575697        0.7325305069        0.2250273300
 C          6.4813351213       -0.2303616101       -0.1618669672
 C          7.7846760494        0.1534797375       -0.4357737741
 C          8.1499951758        1.4864328747       -0.3215985334
 C          7.2224968954        2.4412602039        0.0684600511
 C          5.9177946529        2.0643986728        0.3448221493
 H          5.1653293194        2.7685894416        0.6598974831
 H          7.5111428595        3.4759637313        0.1593124056
 H          9.1649370333        1.7826090585       -0.5347641014
 H          8.5087242502       -0.5868949893       -0.7355683767
 H          6.1539554478       -1.2555319486       -0.2278119914
 H          3.8410041079        0.6355282786       -1.6953295960
 H          2.4451122302       -0.2183020416       -3.3749544434
 H          0.3534014962       -1.4086199385       -3.9137545657
 H         -1.2462054301       -1.9842936439       -2.1278900984
 C         -1.0266767580       -1.4539987900        0.5456091100
 H         -0.6832115907       -0.9238043642        1.4452915347
 C         -0.9036532194       -2.9465722087        0.7966665379
 C          0.3723071605       -3.4775311411        1.3758513881
 C         -0.8774436754       -3.4603035204        2.2030369483
 H         -1.3670139837       -4.3983034686        2.4181325665
 H         -0.9497594422       -2.7358988927        3.0015046856
 H          1.1553599987       -2.7688823665        1.6059220710
 H          0.7390799498       -4.4285083733        1.0207284534
 H         -1.4065382702       -3.5483240208        0.0507632379
 O         -2.0486240458        0.8628846597        1.7319930815
