  62
        -98.94505784
 C         -1.5326583418       -0.7897031683       -0.4471927063
 C         -2.8310120471       -1.3493391973       -0.4800066871
 C         -3.9387768858       -0.3910827742       -0.5959932314
 C         -3.6648725555        0.9241617138       -0.6757289725
 C         -4.6978176253        2.0108505377       -0.7457540356
 C         -5.0689958371        2.5154872002        0.6556522447
 C         -5.3989960150        1.3989331216        1.6461574573
 H         -4.4977051058        0.8107331814        1.8333417853
 H         -5.6751510411        1.8724773490        2.5907964137
 C         -6.5288807599        0.4632012479        1.1942648595
 H         -7.2048575871        0.2978979256        2.0359570454
 H         -7.1090233062        0.9379191539        0.4021042758
 C         -6.0608601198       -0.9147172156        0.7221878010
 H         -6.9386963725       -1.5607506503        0.6357701647
 H         -5.4038115819       -1.3566822278        1.4756577425
 C         -5.3348262802       -0.9467504370       -0.6287419845
 H         -5.9369413458       -0.4343470681       -1.3819064217
 H         -5.2330034673       -1.9948299793       -0.9256095115
 H         -5.9237551808        3.1883364839        0.5654945150
 H         -4.2265609179        3.0864841522        1.0524646895
 H         -4.2858056703        2.8400025183       -1.3231648192
 H         -5.5829324616        1.6321969765       -1.2531783334
 O         -2.4028636442        1.4230369481       -0.6534954487
 C         -1.3034150228        0.5845307133       -0.5282728869
 O         -0.2075177970        1.1714722952       -0.5039405805
 O         -3.0534968569       -2.5888055486       -0.4107146600
 C         -0.3322200913       -1.7103433949       -0.3297572757
 C          0.5127388850       -1.3129149399        0.8542654774
 C         -0.1022333497       -1.1023990362        2.0863097127
 C          0.6345558293       -0.7100641456        3.1861280197
 C          1.9999123216       -0.5075647773        3.0808613271
 C          2.6258967507       -0.7313139779        1.8613081701
 C          1.8849211436       -1.1460649790        0.7623727284
 H          2.4002373654       -1.3369242838       -0.1628452671
 N          4.0081641171       -0.5541263994        1.7267982614
 S          4.6903752625       -0.1174759149        0.2686725958
 O          4.7529837024       -1.2594045839       -0.6097009298
 O          5.9683626593        0.4543133406        0.6384592385
 C          3.6492386929        1.1456314353       -0.4383415050
 C          3.2036520009        1.0064746836       -1.7360005979
 C          2.4194016701        2.0055697607       -2.2873196620
 C          2.0932298957        3.1204482103       -1.5334949181
 C          2.5501450178        3.2468169714       -0.2318526410
 C          3.3373101101        2.2527054069        0.3237440724
 H          3.7086701867        2.3271503660        1.3331952316
 H          2.2873296538        4.1135485764        0.3532247445
 H          1.4719014492        3.8914028092       -1.9609576883
 H          2.0560809528        1.9062451065       -3.2982076882
 H          3.4733455088        0.1182050081       -2.2859803234
 H          4.4709406490       -0.1238470439        2.5129858775
 H          2.5752146885       -0.1854459447        3.9351695765
 H          0.1419582093       -0.5484913648        4.1332522388
 H         -1.1714628318       -1.2447338541        2.1667491900
 H         -0.7432316658       -2.7142751060       -0.1460064438
 C          0.4369479345       -1.7277907211       -1.6341746991
 C          1.2389550030       -2.9318025261       -2.0251379022
 C         -0.0318502029       -2.6092233328       -2.7510149064
 H          0.0297180263       -2.2375410346       -3.7627936287
 H         -0.8983628217       -3.2269113469       -2.5649882823
 H          2.1809419894       -2.7842182346       -2.5324774679
 H          1.2371559591       -3.7738336838       -1.3493331872
 H          0.8229345774       -0.7485885418       -1.8971392940
