  62
        -98.93784333
 C         -1.4596178358       -1.6354155204        0.2843651326
 C         -1.6507624113       -0.4573205090        1.0521728864
 C         -2.9126835604        0.2688694865        0.8499403707
 C         -3.8163308026       -0.2260573091       -0.0151255646
 C         -5.1332042203        0.4058946989       -0.3675544807
 C         -4.9208060906        1.5757898508       -1.3491666547
 C         -5.2776071998        2.9482914632       -0.7773121850
 H         -4.8895566288        3.7014044521       -1.4662886094
 H         -6.3644608327        3.0515743826       -0.7549874291
 C         -4.7501609422        3.2401029802        0.6309309229
 H         -4.8470596362        4.3158525443        0.7916313087
 H         -5.3903919068        2.7573260680        1.3706774838
 C         -3.2953463488        2.8296893453        0.8938705768
 H         -2.7463800406        2.7659896243       -0.0459843957
 H         -2.8238821411        3.6125572311        1.4918542351
 C         -3.1321993945        1.5097409754        1.6715004919
 H         -3.9947569336        1.3641259163        2.3280381135
 H         -2.2473521647        1.5826586471        2.3115219197
 H         -3.8765450859        1.5702284868       -1.6681479288
 H         -5.5223938175        1.4123556671       -2.2445005590
 H         -5.7484445863       -0.3678004424       -0.8274929835
 H         -5.6279916620        0.7504705249        0.5379406475
 O         -3.5979264043       -1.3536503662       -0.7358785030
 C         -2.4182028337       -2.0771957772       -0.6280157867
 O         -2.3745802565       -3.0634620394       -1.3881696094
 O         -0.8008753524       -0.0363870008        1.8831934065
 C         -0.1531220634       -2.3795802518        0.5034673176
 C          0.8810113981       -1.9637092153       -0.5155116339
 C          0.6949345200       -2.1907181635       -1.8754380031
 C          1.6569657257       -1.7940757770       -2.7857538867
 C          2.8102551780       -1.1552295868       -2.3635338356
 C          3.0059525863       -0.9244236434       -1.0070601232
 C          2.0449015121       -1.3383186977       -0.0941357311
 H          2.2138597938       -1.1620343818        0.9569512405
 N          4.1757511997       -0.2991251321       -0.5498367469
 S          4.1266632378        0.8447208830        0.6706454935
 O          5.4298522062        1.4706641836        0.6170723541
 O          3.7750758271        0.2201489377        1.9196059651
 C          2.8824216111        2.0146914076        0.1592304046
 C          1.5778905908        1.8887380432        0.5898328563
 C          0.6338522108        2.7926845118        0.1274137702
 C          1.0027058261        3.7988382711       -0.7504585603
 C          2.3194821373        3.9133375520       -1.1717397109
 C          3.2673778823        3.0123694479       -0.7171129711
 H          4.3035150415        3.0738193980       -1.0084531978
 H          2.6070716845        4.6996546537       -1.8509724056
 H          0.2615348601        4.4984731190       -1.1037870767
 H         -0.3855635172        2.6911411720        0.4639142508
 H          1.2956492129        1.1044801749        1.2740945979
 H          4.8105433657       -0.0148096591       -1.2817287438
 H          3.5570929243       -0.8431744681       -3.0775772143
 H          1.5043718295       -1.9777716435       -3.8385700439
 H         -0.2114330886       -2.6728271944       -2.2085773927
 H          0.2058378673       -2.0482397386        1.4879448348
 C         -0.2986229789       -3.8879139329        0.5371580863
 C          0.7630770102       -4.6988470253        1.2151717840
 C         -0.5933729289       -4.5672396143        1.8390718712
 H         -1.2507047230       -5.4236948100        1.8353541971
 H         -0.6919430135       -3.9458811561        2.7175985370
 H          1.0404683873       -5.6479666054        0.7830920723
 H          1.5849642414       -4.1665931915        1.6709509944
 H         -0.7565988207       -4.2998539599       -0.3520893510
