  62
        -98.94498221
 C          2.0678594499        1.3352736501        0.0205497094
 C          2.6672960034        0.6784977429        1.1214521226
 C          3.8370684460       -0.1510247471        0.8131598581
 C          4.2709698665       -0.2466210446       -0.4571024639
 C          5.4624940321       -1.0360922430       -0.9274423516
 C          5.1669703401       -2.5208933171       -1.1803261974
 C          4.9605797433       -3.3664616528        0.0770813777
 H          4.9776996599       -4.4128975732       -0.2339607999
 H          5.7994864240       -3.2152996110        0.7571154693
 C          3.6421115901       -3.0932687680        0.8145318169
 H          2.9564033695       -2.5634380397        0.1484649620
 H          3.1657434600       -4.0420318567        1.0727836179
 C          3.7948642671       -2.2945356050        2.1092980372
 H          4.3733792282       -2.8753483040        2.8310100360
 H          2.7997060030       -2.1308793310        2.5311656523
 C          4.4660377391       -0.9260614663        1.9317204248
 H          5.5338974729       -1.0515293844        1.7551613074
 H          4.3274065352       -0.3543688675        2.8526083377
 H          6.0145059060       -2.9323939785       -1.7332457156
 H          4.2846506429       -2.5977480687       -1.8202542068
 H          5.7820099141       -0.5843082710       -1.8689616318
 H          6.2732749610       -0.9432531647       -0.2043760672
 O          3.6643914445        0.3973857291       -1.4888625553
 C          2.5369608237        1.1816289185       -1.2844082858
 O          2.0638274295        1.6779460849       -2.3233266244
 O          2.2414845181        0.7769918674        2.3043184162
 C          0.8420802002        2.1984692553        0.2609823622
 C         -0.3463845476        1.6022446744       -0.4528232864
 C         -1.1775146039        2.3212279749       -1.3006225852
 C         -2.2371401655        1.6973343210       -1.9379025167
 C         -2.4984418433        0.3553115640       -1.7359476892
 C         -1.6878978513       -0.3677815097       -0.8685708930
 C         -0.6282053240        0.2587684132       -0.2319860963
 H          0.0056528935       -0.3073981163        0.4394972108
 N         -1.9545943067       -1.7267803074       -0.6377900824
 S         -3.5451412929       -2.2055844051       -0.4426328134
 O         -3.4824759257       -3.3909926545        0.3834868148
 O         -4.1645425526       -2.3728114655       -1.7339114479
 C         -4.3395933460       -0.8713857985        0.4367273129
 C         -5.4214004801       -0.2251798582       -0.1257124470
 C         -6.0089940042        0.8235162835        0.5636833119
 C         -5.5044007386        1.2080749203        1.7959580097
 C         -4.4189489989        0.5463629088        2.3498082800
 C         -3.8290721578       -0.5041392132        1.6661013062
 H         -2.9863973245       -1.0402054937        2.0730108905
 H         -4.0272597961        0.8461332787        3.3086329275
 H         -5.9586452190        2.0277399941        2.3298220488
 H         -6.8543138215        1.3381639435        0.1362514212
 H         -5.7787982200       -0.5546261568       -1.0877435288
 H         -1.3489702605       -2.1585790808        0.0437833812
 H         -3.3052790171       -0.1475925579       -2.2437563273
 H         -2.8659291544        2.2646104545       -2.6067665678
 H         -0.9889764583        3.3673492478       -1.4749671825
 H          0.6539426894        2.1382833216        1.3433270992
 C          1.1188203936        3.6406280527       -0.1046330840
 C          0.3666186405        4.7457018973        0.5728839526
 C          1.8127665699        4.5183088642        0.8921285023
 H          2.5411831493        5.2297405180        0.5329854278
 H          2.0655785846        4.0815233046        1.8473432923
 H          0.1021357960        5.6188452776       -0.0040107240
 H         -0.3652364000        4.4688351544        1.3162878450
 H          1.3852700655        3.7631689799       -1.1481757462
