  62
        -98.94074065
 C         -1.1189503323       -1.4304347274        0.1087969183
 C         -1.6323060539       -0.5518786651        1.0898310416
 C         -2.5177203982        0.5327179721        0.6265982568
 C         -2.7559808131        0.6501350781       -0.6930323419
 C         -3.6729371011        1.6169167834       -1.3951012651
 C         -5.1572472379        1.2535495478       -1.2279416929
 C         -5.5724630881        0.8717601146        0.1901316421
 H         -6.6161270584        0.5484090358        0.1541895493
 H         -4.9805399726        0.0160698666        0.5196316964
 C         -5.4658771059        1.9912568039        1.2229735086
 H         -5.8903392478        1.6124115523        2.1563080874
 H         -6.0776615810        2.8368450775        0.9008879545
 C         -4.0511703234        2.4959028808        1.5166829173
 H         -4.1003725934        3.0860193844        2.4365380211
 H         -3.7053822767        3.1697192438        0.7373728439
 C         -3.0235687497        1.3947283206        1.7581212448
 H         -2.1288106290        1.8437814166        2.2067522418
 H         -3.4087835490        0.7062130709        2.5189320032
 H         -5.7585231179        2.0975513582       -1.5703011086
 H         -5.3720025201        0.4014309562       -1.8773849824
 H         -3.4858587484        2.6318022054       -1.0569619664
 H         -3.4278049609        1.5672239126       -2.4582493776
 O         -2.1803228195       -0.1773141108       -1.6094397710
 C         -1.3394469078       -1.2138236361       -1.2515047138
 O         -0.8712377058       -1.8475522321       -2.2143516726
 O         -1.3711711444       -0.6690363605        2.3194702592
 C         -0.2284547053       -2.5770661397        0.5614307492
 C          1.1979653711       -2.2037967768        0.2457429133
 C          1.9464592312       -2.7805126897       -0.7708355032
 C          3.2264816436       -2.3248722108       -1.0409051276
 C          3.7848340377       -1.2936780758       -0.3071842435
 C          3.0426559575       -0.7142136888        0.7139436528
 C          1.7635771218       -1.1699339224        0.9835630275
 H          1.1807315999       -0.7106499026        1.7718212466
 N          3.5914730898        0.3606986912        1.4527059036
 S          3.8351757326        1.7548843457        0.5548576240
 O          4.9627683565        1.5550036399       -0.3184811292
 O          3.9543744853        2.8261180013        1.5176044153
 C          2.3440667281        1.9433717092       -0.4061164876
 C          1.2503257952        2.5455894734        0.1827219054
 C          0.0752475611        2.6565505472       -0.5418612558
 C          0.0126121447        2.1564881032       -1.8333096153
 C          1.1138684794        1.5389477834       -2.4042548214
 C          2.2932300044        1.4292140151       -1.6858121337
 H          3.1731394819        0.9634373870       -2.0982297008
 H          1.0525875950        1.1363502395       -3.4025404037
 H         -0.9010686142        2.2434902045       -2.3990763746
 H         -0.7873502957        3.1265999343       -0.0972636803
 H          1.3409207318        2.9314476145        1.1858355296
 H          3.0391680160        0.5891447189        2.2682800462
 H          4.7727773950       -0.9165486005       -0.5168273413
 H          3.7963115766       -2.7783931371       -1.8376260757
 H          1.5214655939       -3.5739571985       -1.3627193505
 H         -0.3311599654       -2.6087906990        1.6553634578
 C         -0.6641650836       -3.9086946907       -0.0074460338
 C         -0.1678462153       -5.1730433625        0.6258996756
 C         -1.6019648358       -4.7687171132        0.7835906421
 H         -2.3581214099       -5.3285090246        0.2539708592
 H         -1.9264406239       -4.4021325806        1.7466939542
 H          0.0618661324       -6.0138027408       -0.0104911964
 H          0.4827193080       -5.0793880664        1.4823695494
 H         -0.7933759713       -3.8942408107       -1.0823863224
