  62
        -98.94675309
 C         -1.6102488880       -1.4679305037       -0.0164000527
 C         -2.4455815390       -0.8656756262        0.9534770635
 C         -3.1220614180        0.3671262450        0.5368395743
 C         -2.9241991540        0.8510234919       -0.7034819829
 C         -3.5989078078        2.0589710834       -1.2958409045
 C         -2.9258338418        3.3942731779       -0.9529112428
 C         -3.0917792865        3.8566921322        0.4945955916
 H         -2.7537284780        4.8936029168        0.5424519984
 H         -4.1488526392        3.8480807275        0.7621221411
 C         -2.2943036324        3.0292603501        1.5124466149
 H         -1.5297583795        2.4484491163        0.9900335665
 H         -1.7724239879        3.6985575719        2.2001501259
 C         -3.1469571898        2.0839723981        2.3594060420
 H         -3.8272729178        2.6659743827        2.9852651970
 H         -2.4841304533        1.5198553176        3.0211466976
 C         -3.9726469767        1.0787159633        1.5452011746
 H         -4.3742735251        0.3288942353        2.2313961836
 H         -4.8044328893        1.5848663369        1.0557361390
 H         -1.8631920654        3.3133977926       -1.1843048938
 H         -3.3586051238        4.1545459426       -1.6069888556
 H         -3.5697086040        1.9283108340       -2.3796153623
 H         -4.6421021697        2.0827948410       -0.9786441581
 O         -2.0902189957        0.2571531445       -1.5970036861
 C         -1.4000019371       -0.9030626310       -1.2749287483
 O         -0.6543945808       -1.3242347454       -2.1770475839
 O         -2.6204411823       -1.3385910336        2.1098079095
 C         -0.8865578193       -2.7552852044        0.3347174587
 C          0.6047402582       -2.5365080771        0.2797481170
 C          1.4795224723       -3.3649887343       -0.4093318236
 C          2.8369750881       -3.0898518384       -0.4308716507
 C          3.3514738663       -1.9939742549        0.2365037584
 C          2.4843384500       -1.1604717767        0.9333327658
 C          1.1268525087       -1.4377394810        0.9532261864
 H          0.4534741591       -0.7871723957        1.4981686660
 N          2.9972214994       -0.0381630241        1.6190999157
 S          3.7364532499        1.1575804624        0.7106062877
 O          4.8719002439        0.5900050870        0.0303778271
 O          4.0147929164        2.2282699223        1.6400756675
 C          2.5168498496        1.6930067410       -0.4761433020
 C          2.2174039024        0.8763585018       -1.5487900412
 C          1.2463594811        1.2833820191       -2.4497002464
 C          0.6036071731        2.4981806470       -2.2693322313
 C          0.9177756470        3.3089528124       -1.1886199241
 C          1.8762370260        2.8996405371       -0.2760333388
 H          2.1489961004        3.4963317871        0.5796314342
 H          0.4210819270        4.2569272392       -1.0526116547
 H         -0.1473077314        2.8095130818       -2.9790467545
 H          0.9825562860        0.6397488983       -3.2732398538
 H          2.7384212103       -0.0592663314       -1.6700970796
 H          2.3219194615        0.3903968472        2.2368356222
 H          4.4027838894       -1.7576399239        0.2135172729
 H          3.5045228704       -3.7398864253       -0.9759992262
 H          1.0999759155       -4.2239070194       -0.9374639062
 H         -1.1606773467       -2.9685942953        1.3788708819
 C         -1.3706991886       -3.8941985402       -0.5370299171
 C         -1.3134024048       -5.3048664775       -0.0341353790
 C         -2.6334411024       -4.6072318924       -0.1602051132
 H         -3.3076369813       -4.9128445699       -0.9461516874
 H         -3.1334561151       -4.2880338554        0.7427170863
 H         -1.0834097230       -6.0939147540       -0.7340945548
 H         -0.9187115777       -5.4665661730        0.9575650699
 H         -1.1931761217       -3.7171897279       -1.5917040007
