  62
        -98.94444262
 C         -1.8365595716       -1.1800486344        0.1086325008
 C         -1.1607231508       -1.9653343635       -0.8542734542
 C          0.0591799639       -2.6687953981       -0.4115464232
 C          0.4134429830       -2.5952847077        0.8846277211
 C          1.6170157565       -3.1897234092        1.5671123430
 C          2.9080191483       -2.4087966782        1.2808732136
 C          3.1273047550       -2.0480803432       -0.1856777618
 H          2.3091595200       -1.4170363208       -0.5395157026
 H          4.0365194470       -1.4426884474       -0.2466353084
 C          3.2954045651       -3.2374560552       -1.1295506563
 H          4.1276113278       -3.8557056735       -0.7850290315
 H          3.5646673568       -2.8302792957       -2.1077374352
 C          2.0649404922       -4.1303576174       -1.3151226735
 H          1.9484032415       -4.8253251322       -0.4874611012
 H          2.2371987694       -4.7376725815       -2.2085054694
 C          0.7637951346       -3.3692951525       -1.5465430336
 H          0.9278581459       -2.6031527531       -2.3148413413
 H          0.0230562701       -4.0551979250       -1.9752780600
 H          3.7525704014       -3.0002792858        1.6390726917
 H          2.8790733165       -1.4766887362        1.8505354032
 H          1.7298436901       -4.2334723726        1.2899951900
 H          1.4180288045       -3.1492151843        2.6402818873
 O         -0.3189985431       -1.8932332746        1.7965300626
 C         -1.4079405881       -1.1188908107        1.4331897927
 O         -1.8927804553       -0.4504034355        2.3654365840
 O         -1.5498843815       -2.0653267389       -2.0500849109
 C         -2.9801682628       -0.2883853790       -0.3464056089
 C         -2.4935277381        1.1403590300       -0.2796275302
 C         -3.1034726520        2.1390858075        0.4668231077
 C         -2.5469029679        3.4061122828        0.5211640499
 C         -1.3710274037        3.6965646490       -0.1459386915
 C         -0.7571260098        2.7060578149       -0.9059220671
 C         -1.3351208801        1.4497284101       -0.9842486577
 H         -0.8593346323        0.6888301985       -1.5860514439
 N          0.4377673296        2.9643827237       -1.6030602169
 S          1.7381766097        1.9191409552       -1.4759775476
 O          2.8223304620        2.6139336149       -2.1349766390
 O          1.3932748784        0.6253498558       -2.0036314462
 C          2.0772346677        1.8094388580        0.2698517429
 C          1.2846194890        0.9895983734        1.0461023826
 C          1.5005679142        0.9405486136        2.4137549368
 C          2.5092094438        1.7061186520        2.9785998767
 C          3.3022524828        2.5218737526        2.1849053746
 C          3.0821935107        2.5821362914        0.8182030631
 H          3.6740880581        3.2008740031        0.1633135846
 H          4.0874698929        3.1126528879        2.6284132033
 H          2.6763685298        1.6631476840        4.0433370754
 H          0.8692370941        0.3079857752        3.0190219277
 H          0.5110288446        0.4013848148        0.5781829860
 H          0.7590674269        3.9192407663       -1.5278299479
 H         -0.9304725081        4.6800545965       -0.0844361714
 H         -3.0285223549        4.1745303340        1.1063947834
 H         -4.0070595000        1.9242931169        1.0127391129
 H         -3.1444324627       -0.5433610069       -1.4037597893
 C         -4.2533116569       -0.5498412454        0.4256944092
 C         -5.5762634583       -0.1838799915       -0.1760837247
 C         -5.1828561680       -1.6241316650       -0.0503735045
 H         -5.6835167659       -2.2351521084        0.6855413611
 H         -4.9062690548       -2.1604541093       -0.9466313887
 H         -6.3521922573        0.1927537735        0.4728360084
 H         -5.5713452981        0.2581219124       -1.1610738012
 H         -4.1277524210       -0.4385701403        1.4960684033
