  62
        -98.94582773
 C         -1.9667328115       -1.2009158706        0.1216204613
 C         -0.8322495268       -1.3204545122        0.9628361032
 C          0.0958145803       -2.4148086660        0.6386943802
 C         -0.1438373710       -3.1974657149       -0.4273995466
 C          0.7446519921       -4.3142936696       -0.8921881541
 C          1.7706942160       -3.8291222082       -1.9248353476
 C          2.5422703315       -2.5780727665       -1.5021849999
 H          3.2757677229       -2.3728574823       -2.2860055750
 H          1.8637334625       -1.7210956522       -1.4799951024
 C          3.2603353647       -2.6974503605       -0.1507157600
 H          3.3791957690       -3.7488795279        0.1148015838
 H          4.2606081587       -2.2712711113       -0.2517309205
 C          2.5747415769       -1.9527648086        0.9957989810
 H          2.3412387900       -0.9357312780        0.6719461041
 H          3.2804206406       -1.8796010397        1.8274846312
 C          1.2889669624       -2.5903226861        1.5353552263
 H          1.4596039733       -3.6476394906        1.7481118820
 H          1.0363945096       -2.0845148852        2.4717210033
 H          2.4734015769       -4.6426361094       -2.1175172953
 H          1.2461083219       -3.6049844405       -2.8567601133
 H          1.2557721069       -4.7443532736       -0.0328452862
 H          0.1177849358       -5.0808962150       -1.3517406246
 O         -1.2279322039       -3.0387369149       -1.2292651649
 C         -2.1525429292       -2.0401727820       -0.9790852077
 O         -3.1005103735       -2.0077040866       -1.7927252690
 H         -0.5288245990        0.8728834657       -0.0476255790
 C         -1.2930402682        1.5616992165       -0.3633606804
 C         -2.6270395184        1.2036618650       -0.2559763893
 C         -3.5944759887        2.1084144184       -0.6809336412
 C         -3.2273353505        3.3313167410       -1.2120321468
 C         -1.8927660567        3.6717864694       -1.3435862196
 C         -0.9177251246        2.7770952938       -0.9171139919
 N          0.4410549689        3.1028631413       -1.0148779235
 S          1.6651917548        1.9832468053       -1.2195827925
 O          2.6296185922        2.6412820988       -2.0779290296
 O          1.1654908899        0.7150544271       -1.6977975421
 C          2.4009762041        1.7919100694        0.3928110432
 C          3.7393252635        1.4469227859        0.4317673846
 C          4.3517541181        1.2546376867        1.6589042996
 C          3.6170421068        1.4064540388        2.8250153041
 C          2.2778768731        1.7571903352        2.7699225129
 C          1.6592794850        1.9552534283        1.5446295025
 H          0.6162207963        2.2184207196        1.4865410057
 H          1.7026000182        1.8704095820        3.6745575060
 H          4.0901085943        1.2503539447        3.7817089922
 H          5.3942273855        0.9831915423        1.7011390085
 H          4.2700758342        1.3392668272       -0.5005297568
 H          0.6462571468        3.9609165857       -1.5036334286
 H         -1.6050387231        4.6185290552       -1.7745383733
 H         -3.9872317212        4.0230691153       -1.5422322740
 H         -4.6379067878        1.8429138123       -0.6071578695
 C         -3.0314905714       -0.1368415503        0.3167399646
 H         -3.9070663094       -0.4840266415       -0.2505925744
 C         -3.4372833990        0.0214787460        1.7719649747
 C         -4.8491457389        0.3737246035        2.1255981908
 C         -4.3300062642       -1.0052235303        2.3992358978
 H         -4.1388019191       -1.2990285527        3.4201104157
 H         -4.6748452357       -1.8137029532        1.7703431170
 H         -5.0190055206        1.0347001762        2.9614987370
 H         -5.5600393241        0.4889239179        1.3216883334
 H         -2.6452443893        0.4279893637        2.3874289458
 O         -0.5860674811       -0.5646873804        1.9395398645
