  62
        -98.93865164
 C          1.8596653377        0.9868114378        0.3876691447
 C          2.1744032848       -0.1594491294       -0.3779960524
 C          3.4896450822       -0.7810315111       -0.1285611657
 C          4.3090458214       -0.2629019464        0.8042638238
 C          5.6668850440       -0.7109868275        1.3032695709
 C          6.4976107891       -1.7207319178        0.5153918977
 C          7.0025004061       -1.2181998377       -0.8366338957
 H          7.7518865083       -0.4421376235       -0.6614471934
 H          7.4969652634       -2.0484120007       -1.3458187938
 C          5.9385691330       -0.6311542514       -1.7607328191
 H          6.4338478274       -0.3192858443       -2.6843070785
 H          5.5126808471        0.2657357355       -1.3063580177
 C          4.8049560645       -1.5820237411       -2.1400470965
 H          5.2203414328       -2.5014313642       -2.5573267349
 H          4.2167676013       -1.0955791157       -2.9227855954
 C          3.8399907477       -1.9528882006       -1.0002585423
 H          2.9031578597       -2.2946445416       -1.4497513631
 H          4.2301765105       -2.7721560999       -0.4010970821
 H          5.9482528606       -2.6498920781        0.3950275370
 H          7.3726381252       -1.9492078817        1.1300474102
 H          5.4953284778       -1.1138092156        2.3077999161
 H          6.2505932139        0.2055491992        1.4357781889
 O          3.9534130510        0.8319615225        1.5371256778
 C          2.7501811503        1.4812248203        1.3455995872
 O          2.5891282999        2.4794144751        2.0754352122
 O          1.4081474901       -0.6728935739       -1.2381799824
 C          0.5633200405        1.7700844834        0.2447953908
 C         -0.5777874191        1.0930404053        0.9652592415
 C         -1.2216895120        1.7149445440        2.0281371497
 C         -2.2884222276        1.1025015283        2.6634986427
 C         -2.7350218890       -0.1399541751        2.2508605437
 C         -2.0925695396       -0.7711667123        1.1938072382
 C         -1.0279593400       -0.1538635177        0.5551159812
 H         -0.5291515451       -0.6524059192       -0.2627182536
 N         -2.5532038304       -2.0302029419        0.7522415660
 S         -4.1469735597       -2.0510281122        0.2294101747
 O         -5.0210309441       -2.0835722406        1.3752050139
 O         -4.2494237994       -3.1717396319       -0.6780002948
 C         -4.3401135795       -0.5067434318       -0.6418904060
 C         -3.7140580555       -0.3682892348       -1.8646483455
 C         -3.7835210607        0.8506168615       -2.5185916348
 C         -4.4666284048        1.9074862312       -1.9366642858
 C         -5.0897021800        1.7522738036       -0.7084282364
 C         -5.0255238318        0.5346017351       -0.0504226031
 H         -5.4950336551        0.3705979803        0.9054429902
 H         -5.6199671352        2.5764137745       -0.2593427810
 H         -4.5140551750        2.8578561605       -2.4447311793
 H         -3.3001727262        0.9719566796       -3.4749438776
 H         -3.1930896677       -1.2121179732       -2.2885940123
 H         -1.9545866430       -2.4343905089        0.0453086967
 H         -3.5691996878       -0.6302485388        2.7264486766
 H         -2.7778364751        1.5979709290        3.4880221748
 H         -0.8729678475        2.6812078816        2.3624759139
 H          0.7477168398        2.7316510609        0.7416877267
 C          0.1875401292        2.0412671752       -1.2002523368
 C         -0.7582818211        3.1619452172       -1.5043125468
 C          0.6903547520        3.2830699166       -1.8694745962
 H          0.9694708926        3.2295505083       -2.9111182539
 H          1.3109037933        3.9487656258       -1.2868848506
 H         -1.4790117031        3.0247031254       -2.2949652967
 H         -1.1219892430        3.7476033969       -0.6739322984
 H          0.1192064095        1.1453429632       -1.8023315881
