  62
        -98.93374257
 C          2.0825760998        0.4036821892        0.3209308999
 C          2.7561779397       -0.8346455909        0.1769475801
 C          4.1141905696       -0.7968248211       -0.3911190400
 C          4.6343965497        0.3899448288       -0.7483571302
 C          6.0092394297        0.6647841586       -1.2920876503
 C          6.9834872598        1.0191346287       -0.1557896104
 C          7.6690083597       -0.1775860913        0.5023677998
 H          8.3929982797       -0.6045480714       -0.1948074102
 H          8.2262155798        0.1997307288        1.3629507297
 C          6.7306794197       -1.2911031611        0.9748835400
 H          7.2597107096       -1.8781684710        1.7281942001
 H          5.8565035997       -0.8547414410        1.4617074000
 C          6.2834721195       -2.2254939112       -0.1591566998
 H          6.8995798095       -2.0396883314       -1.0386924799
 H          6.4656131395       -3.2619149212        0.1328122903
 C          4.7988325395       -2.1281451912       -0.5385499298
 H          4.6701369294       -2.4734501813       -1.5700633497
 H          4.2164584095       -2.8088616210        0.0907474903
 H          6.4287857399        1.5855469889        0.5966793896
 H          7.7598640498        1.6765046986       -0.5523658005
 H          6.3706613996       -0.1794974615       -1.8715007202
 H          5.9149450098        1.5301439885       -1.9513284804
 O          3.9519990898        1.5568805789       -0.6032480203
 C          2.6671189098        1.6052792691       -0.0809910703
 O          2.1890515499        2.7528429191       -0.0382932604
 H         -1.3511040804       -1.4415587405        0.8433230103
 C         -1.3261231704       -0.8129071506       -0.0336463197
 C         -0.3471227203        0.1598284593       -0.1706234799
 C         -0.3416492603        0.9479483791       -1.3182321201
 C         -1.2893757103        0.7562201690       -2.3062571900
 C         -2.2714953504       -0.2088103809       -2.1609761198
 C         -2.2906715204       -0.9946116607       -1.0159753297
 N         -3.2875885605       -1.9733080606       -0.8199403295
 S         -4.3438746004       -1.7211740403        0.4566127705
 O         -3.6089771804       -1.6876473602        1.6934455605
 O         -5.3548927805       -2.7453433602        0.3270078407
 C         -5.0528625803       -0.1202548503        0.1131694903
 C         -4.3616735802        1.0118570097        0.4960264801
 C         -4.8705305101        2.2547828997        0.1543104499
 C         -6.0542002201        2.3433870397       -0.5622778000
 C         -6.7377581902        1.1967467797       -0.9382587198
 C         -6.2313558803       -0.0488526103       -0.6037892597
 H         -6.7310467204       -0.9658777603       -0.8716604195
 H         -7.6595595602        1.2696566997       -1.4926026398
 H         -6.4460991801        3.3126664797       -0.8272412502
 H         -4.3373351200        3.1448857197        0.4478655598
 H         -3.4470922502        0.9064114497        1.0557655101
 H         -3.8185638005       -2.1815417007       -1.6546056594
 H         -3.0140880404       -0.3562320709       -2.9307017697
 H         -1.2694059803        1.3703522789       -3.1936005301
 H          0.4114635398        1.7145972090       -1.4216369002
 C          0.6859962398        0.3488045294        0.9117138000
 H          0.6770761397       -0.5636174005        1.5295480801
 C          0.3627944199        1.5226052495        1.8270406198
 C         -0.7191330200        2.5141832396        1.5320138797
 C         -0.9075505801        1.5077392198        2.6251361099
 H         -0.8774813300        1.8438877599        3.6506788098
 H         -1.5895292501        0.6856833398        2.4574694900
 H         -0.5381881899        3.5433635296        1.8015345796
 H         -1.2826861301        2.3961518695        0.6196118898
 H          1.2454956100        1.9081542895        2.3254887097
 O          2.2425214896       -1.9335685208        0.5235146403
