  62
        -98.94535911
 C         -1.4449434617       -1.3151713266       -0.4995339972
 C         -2.7625648724       -1.3697939703        0.0272901247
 C         -3.7141968717       -0.3793873851       -0.4838059030
 C         -3.3153878744        0.5048485597       -1.4154968037
 C         -4.1671760398        1.5731457794       -2.0458266560
 C         -4.2653018256        2.8592226045       -1.2139412727
 C         -5.1303458808        2.7560534950        0.0430563973
 H         -5.2927820703        3.7736737139        0.4038199699
 H         -6.1049642323        2.3441003128       -0.2208756197
 C         -4.5074249518        1.9261984775        1.1745967923
 H         -3.4351076999        1.8114716916        0.9951996408
 H         -4.6148330375        2.4622118311        2.1205169492
 C         -5.1307807933        0.5430121295        1.3643198511
 H         -4.5869738497        0.0302207711        2.1617905610
 H         -6.1709704308        0.6507966855        1.6796971544
 C         -5.0879168350       -0.3459400839        0.1148159013
 H         -5.8145354310        0.0010404967       -0.6195044055
 H         -5.3462025557       -1.3656293174        0.4107786581
 H         -3.2556530250        3.1738884241       -0.9372645398
 H         -4.6893023408        3.6330930023       -1.8582527444
 H         -3.7024417627        1.8174361057       -3.0034975793
 H         -5.1676389600        1.1820774103       -2.2336228032
 O         -2.0556023730        0.5084239953       -1.9198095975
 C         -1.0825645248       -0.3719099254       -1.4615978715
 O          0.0216967197       -0.2106634821       -2.0153758599
 O         -3.1283867497       -2.2197290324        0.8830488837
 C         -0.4517515820       -2.3079530050        0.0839550904
 C          0.2447910267       -1.6762420335        1.2670410221
 C          0.0043643926       -2.1358179925        2.5562557787
 C          0.6123144579       -1.5297547044        3.6413540557
 C          1.4646565395       -0.4571433181        3.4590682274
 C          1.7134574712        0.0114178381        2.1716164037
 C          1.1118963277       -0.6068798187        1.0852400159
 H          1.2810723334       -0.2249158274        0.0929175248
 N          2.5943833885        1.0784381212        1.9767174264
 S          2.6154796522        2.0437102815        0.6130703300
 O          3.3490386827        3.2175977384        1.0428863830
 O          1.2889016167        2.2859391439        0.0980157178
 C          3.6365173299        1.1247615701       -0.5189473488
 C          3.1258627938        0.6046953372       -1.6898049947
 C          3.9702688372       -0.1181044913       -2.5204461398
 C          5.2983916366       -0.3031329154       -2.1717351905
 C          5.7968951221        0.2330739104       -0.9933692912
 C          4.9600514488        0.9535965263       -0.1585032519
 H          5.3071100041        1.3953898491        0.7606972167
 H          6.8310126429        0.0894702940       -0.7246406047
 H          5.9475348620       -0.8677606907       -2.8224720220
 H          3.5766394529       -0.5348666439       -3.4340659230
 H          2.0838977073        0.7471985732       -1.9329094676
 H          2.8913138431        1.5623935089        2.8098689962
 H          1.9328304741        0.0228882905        4.3048441375
 H          0.4146740465       -1.8909556053        4.6392893887
 H         -0.6824677781       -2.9560556892        2.7042752586
 H         -1.0661689185       -3.1351351677        0.4660085544
 C          0.5435471491       -2.8708600715       -0.9085689987
 C          1.2233416912       -4.1681455153       -0.5914602219
 C          0.1927527181       -4.1074720072       -1.6778616074
 H          0.5156489255       -4.1818987347       -2.7052266177
 H         -0.7726449133       -4.5553979398       -1.4916550636
 H          2.2588128135       -4.2861286894       -0.8706919537
 H          0.9566457395       -4.6602255426        0.3316271387
 H          1.1196465112       -2.1151319583       -1.4247608264
