  62
        -98.93432892
 C         -2.4073361961       -1.1911472180        0.0759742496
 C         -3.3158898525       -0.5473856577        0.9507338268
 C         -4.1717844293        0.5010345005        0.3676995258
 C         -4.0246256767        0.8114877634       -0.9317707257
 C         -4.7503107778        1.8733926048       -1.7110606693
 C         -3.9502136954        3.1870086063       -1.7171130564
 C         -4.2193554388        4.1113358345       -0.5301989537
 H         -3.5014918903        4.9327817361       -0.5882592045
 H         -5.2180342500        4.5416590529       -0.6293507488
 C         -4.1051744567        3.4559011818        0.8486687007
 H         -3.9469594327        4.2472398099        1.5841508140
 H         -3.2255869807        2.8096370471        0.8771858363
 C         -5.3552719418        2.6545163077        1.2418242894
 H         -5.6915693208        2.9712883802        2.2313315947
 H         -6.1632670990        2.8923755890        0.5503952055
 C         -5.1625340607        1.1326028441        1.3074129256
 H         -4.8121599903        0.8534552499        2.3064001444
 H         -6.1332987440        0.6440353704        1.1709869407
 H         -4.1841767789        3.7354242672       -2.6317402393
 H         -2.8879185455        2.9315295718       -1.7522676987
 H         -4.8248119068        1.5078500845       -2.7373371764
 H         -5.7518394787        2.0236331519       -1.3192521744
 O         -3.1051058026        0.2018022505       -1.7277046998
 C         -2.2687962498       -0.7992348670       -1.2565647961
 O         -1.4730339565       -1.2326495580       -2.1083032774
 H         -0.1061301147       -0.0974749841        1.1936400255
 C          0.4948745305       -0.8124827553        0.6434642754
 C         -0.0770096402       -2.0219443728        0.2657792163
 C          0.7035510331       -2.9314863463       -0.4338585652
 C          2.0145849399       -2.6254145651       -0.7557888019
 C          2.5736613687       -1.4149433388       -0.3916665014
 C          1.8042782147       -0.4990444360        0.3145759421
 N          2.3556499480        0.7429077508        0.6737882036
 S          3.8622169715        0.7734887628        1.4124567912
 O          4.1032979807       -0.4300735704        2.1742298335
 O          3.8927095734        2.0172322960        2.1510790563
 C          5.0064242132        0.8781261587        0.0529116566
 C          4.8479470456        1.9094059502       -0.8518229387
 C          5.7332655314        2.0103052623       -1.9129620601
 C          6.7581292990        1.0855795935       -2.0485651761
 C          6.9064400559        0.0585576148       -1.1291019709
 C          6.0233761139       -0.0487348253       -0.0658691141
 H          6.0959182199       -0.8338053926        0.6698828662
 H          7.7040543238       -0.6588637881       -1.2362834747
 H          7.4451964406        1.1663285562       -2.8760365934
 H          5.6206777560        2.8075001390       -2.6300550481
 H          4.0403014083        2.6080701327       -0.7095368514
 H          1.7100179439        1.3532267039        1.1531545589
 H          3.5914454122       -1.1718483433       -0.6492159175
 H          2.6078636050       -3.3386002093       -1.3074570497
 H          0.2798736112       -3.8710217776       -0.7476132242
 C         -1.5125572482       -2.2712344170        0.6566801378
 H         -1.5900778111       -2.1292828811        1.7483774506
 C         -1.9795010637       -3.6915921580        0.3768243418
 C         -3.4291420215       -3.9963070648        0.1485641274
 C         -2.4486643652       -4.1350662687       -0.9752161842
 H         -2.1883621508       -5.1301940568       -1.3052952490
 H         -2.4602843125       -3.4017855723       -1.7657922192
 H         -4.1181776593       -3.1643154818        0.1269597668
 H         -3.8405286331       -4.8918691814        0.5895358608
 H         -1.4249541895       -4.4191618767        0.9618834870
 O         -3.4009756394       -0.8284681560        2.1776188192
