  62
        -98.94073103
 C          2.4360011982        1.0956969831       -0.2318167516
 C          2.0622259925       -0.2700131412       -0.2597751940
 C          2.9795362566       -1.1949653718        0.4193525378
 C          4.0722663579       -0.7214336522        1.0443880715
 C          5.0861198443       -1.5365226982        1.8006305418
 C          6.1657327717       -2.1721500686        0.9137515738
 C          5.6950751152       -3.3479782328        0.0568446656
 H          6.5891162294       -3.8319580550       -0.3412002592
 H          5.1854596885       -4.0754088696        0.6894676284
 C          4.7845434229       -2.9533998440       -1.1142841467
 H          4.8770419315       -1.8812786534       -1.3021214995
 H          5.1135651928       -3.4670382834       -2.0203709003
 C          3.3081115111       -3.2935421387       -0.9112330221
 H          3.1862834794       -4.3772966021       -0.8510704729
 H          2.7516749947       -2.9391833690       -1.7824635954
 C          2.6822989938       -2.6621686183        0.3394110099
 H          1.5970144949       -2.7771067068        0.2794676651
 H          3.0366343494       -3.1710586921        1.2356798044
 H          6.9608137997       -2.5265951589        1.5737308991
 H          6.5888483660       -1.3977989594        0.2698087330
 H          4.5780110950       -2.3137910408        2.3723571030
 H          5.5730835709       -0.8535004199        2.5000449556
 O          4.3778088271        0.6031024474        1.0777908389
 C          3.5783154490        1.5363113263        0.4407508907
 O          3.9833467602        2.7117422128        0.5436325840
 O          1.0250413814       -0.7090228905       -0.8225372783
 C          1.5729799000        2.1634077897       -0.8869411612
 C          0.2874546699        2.2582754266       -0.1015887433
 C          0.2813337075        2.9642889527        1.0983804328
 C         -0.8532697121        3.0061489254        1.8864403396
 C         -2.0028681579        2.3387244251        1.4998108825
 C         -2.0025839494        1.6245182325        0.3099761644
 C         -0.8668493773        1.5980994498       -0.4898445812
 H         -0.8749120613        1.0259432630       -1.4036966343
 N         -3.1644229693        0.9362711248       -0.0933569414
 S         -3.9334968011        0.0045399634        1.0894136824
 O         -4.7709563857        0.8749236509        1.8777522764
 O         -2.9643001570       -0.7735249318        1.8287937629
 C         -4.9481465055       -1.0552502575        0.0782049491
 C         -4.4107734864       -2.2374224548       -0.3953695872
 C         -5.1881085342       -3.0488531788       -1.2066237560
 C         -6.4808685122       -2.6648303236       -1.5310004498
 C         -7.0054682504       -1.4751101817       -1.0486913949
 C         -6.2338599937       -0.6591544849       -0.2364905398
 H         -6.5996048670        0.2702111606        0.1676494882
 H         -8.0112336005       -1.1814387327       -1.3022258558
 H         -7.0829727288       -3.2988747668       -2.1624764871
 H         -4.7825069892       -3.9747201671       -1.5818494888
 H         -3.4035818006       -2.5008154358       -0.1119891938
 H         -2.9872240791        0.3731009782       -0.9151026797
 H         -2.8891566180        2.3450115630        2.1137622062
 H         -0.8432828776        3.5573559211        2.8150541390
 H          1.1869742829        3.4650028978        1.4131413284
 H          2.1173566130        3.1088785234       -0.7631463218
 C          1.3777692022        1.9027034161       -2.3655671608
 C          0.8572213902        3.0016000600       -3.2410557644
 C          2.2877792977        2.5693889402       -3.3510517500
 H          2.5942552228        2.0147382832       -4.2252871416
 H          3.0527222523        3.2247313629       -2.9605818059
 H          0.1805602567        2.7474326498       -4.0424304406
 H          0.6492064795        3.9522555613       -2.7738057384
 H          1.0720746947        0.8878203563       -2.5865167210
