  62
        -98.94904057
 C          0.8847829053        1.3517734345        0.2349873573
 C          1.4412374554        0.2776438666        0.9662240668
 C          2.2734880079       -0.6584900533        0.1993589093
 C          2.3989097284       -0.4876063210       -1.1295205945
 C          3.2250279418       -1.3603994659       -2.0294568405
 C          4.6517150297       -0.8152726949       -2.1819867005
 C          5.3241103489       -0.4739851980       -0.8521831457
 H          6.3357873248       -0.1304176652       -1.0782046207
 H          4.7948687644        0.3635439687       -0.3919834611
 C          5.3894546089       -1.6411191254        0.1426919679
 H          5.2356530697       -2.5841894638       -0.3829309357
 H          6.3899106667       -1.6725314790        0.5791484310
 C          4.3997663677       -1.5397673896        1.3046643548
 H          4.4839398296       -0.5549083265        1.7705445782
 H          4.6816856051       -2.2827956909        2.0553025340
 C          2.9255174176       -1.7823319357        0.9555227270
 H          2.8258864004       -2.7248928272        0.4122652636
 H          2.3740394126       -1.8608677542        1.8968701824
 H          5.2490275651       -1.5566346360       -2.7160366720
 H          4.6118975833        0.0913150692       -2.7902784179
 H          3.2516859602       -2.3700811224       -1.6232911575
 H          2.7445771443       -1.3884428441       -3.0094564359
 O          1.8191613793        0.5362272347       -1.8052735033
 C          1.0495037346        1.4805141546       -1.1448474457
 O          0.5867644202        2.3739567369       -1.8800542174
 H         -1.3797202570        0.1724252205        0.3475364259
 C         -1.9351593877        1.0603241025        0.0824262194
 C         -1.3842371719        2.3086742475        0.3442831027
 C         -2.1196880946        3.4399180574        0.0174468806
 C         -3.3550390764        3.3156562745       -0.5954320481
 C         -3.8706782528        2.0720558433       -0.9098041120
 C         -3.1490243751        0.9329656209       -0.5695230952
 N         -3.6351991864       -0.3500609119       -0.8590559046
 S         -2.5675664562       -1.5891077522       -1.2138073490
 O         -1.3893630041       -1.1252567597       -1.9090114680
 O         -3.3785366722       -2.5587404423       -1.9228180430
 C         -2.1405791041       -2.2674101216        0.3749905978
 C         -0.8291317757       -2.6056913122        0.6403883919
 C         -0.5191652859       -3.1759068119        1.8648211295
 C         -1.5201835931       -3.3918749469        2.7985808386
 C         -2.8332513036       -3.0463906234        2.5165348536
 C         -3.1509254557       -2.4826951564        1.2916886935
 H         -4.1589915914       -2.2045573689        1.0336169520
 H         -3.6083693384       -3.2145342675        3.2467326504
 H         -1.2723245537       -3.8307065112        3.7521398031
 H          0.5020888346       -3.4415299732        2.0848909992
 H         -0.0757739298       -2.4010508595       -0.1056549679
 H         -4.4602664206       -0.3777297420       -1.4400747036
 H         -4.8178056593        1.9789623345       -1.4189131097
 H         -3.9147974175        4.2022721063       -0.8522036008
 H         -1.7201069224        4.4187733154        0.2260310492
 C         -0.0054199393        2.3489445924        0.9553981213
 H         -0.0727067179        1.9874115019        1.9925326197
 C          0.6197365482        3.7277159377        0.9559739556
 C          0.3400479485        4.6858109327        2.0742438996
 C          1.6862351757        4.0378146192        1.9619485751
 H          2.5274206438        4.6397969508        1.6524925310
 H          1.9416906916        3.2603927435        2.6671134094
 H          0.2589037089        5.7373081171        1.8436281488
 H         -0.3163809045        4.3539415683        2.8641368800
 H          0.7440009838        4.1263650189       -0.0448200599
 O          1.2458820973        0.1052175324        2.2001293510
