  62
        -98.94887814
 C         -0.8245369449       -1.3708756103        0.1614322343
 C         -1.4771298098       -0.4070540224        0.9635675682
 C         -2.3067174525        0.5655355071        0.2446716144
 C         -2.3436542441        0.5431838689       -1.1004764901
 C         -3.0902423540        1.5125425180       -1.9774827636
 C         -4.5648578491        1.1501154562       -2.2001387459
 C         -5.4736323473        1.3641825577       -0.9890781407
 H         -5.3451979539        2.3808838030       -0.6165009195
 H         -6.5029495621        1.2736299919       -1.3414815829
 C         -5.2509261413        0.3618964047        0.1519811147
 H         -6.2160531872       -0.0095504141        0.5034771584
 H         -4.6945071184       -0.4996387763       -0.2243681933
 C         -4.5171510810        0.9341697390        1.3645850962
 H         -4.3866170797        0.1310475613        2.0941048758
 H         -5.1273243771        1.7133156392        1.8265295413
 C         -3.1326987569        1.5199477167        1.0534485845
 H         -3.2359957354        2.4729592670        0.5343178974
 H         -2.6136787128        1.6817245486        2.0010103759
 H         -4.9327935144        1.7710483045       -3.0202630381
 H         -4.6224997125        0.1075170130       -2.5213503020
 H         -3.0210723838        2.5163276976       -1.5560832062
 H         -2.5806740637        1.5082253414       -2.9440608327
 O         -1.6697976202       -0.3776104261       -1.8398301806
 C         -0.9111872070       -1.3660117346       -1.2317504114
 O         -0.3821915981       -2.1702845984       -2.0229176832
 H          1.3850344321       -0.1568916952        0.3792832946
 C          1.9916469614       -1.0187546123        0.1405068352
 C          1.4673448836       -2.2923488108        0.3223552931
 C          2.2698292463       -3.3872660351        0.0286840297
 C          3.5484006393       -3.2037050571       -0.4691381873
 C          4.0442583930       -1.9341951851       -0.7009849520
 C          3.2537122652       -0.8316988364       -0.3962850530
 N          3.7172767827        0.4756050740       -0.6054964663
 S          2.6460564918        1.6698874618       -1.0838725341
 O          1.5815043691        1.1583536932       -1.9146861173
 O          3.4925214724        2.6784634082       -1.6898010406
 C          1.9987602465        2.3238727945        0.4390899428
 C          2.8752731881        2.5786691969        1.4754177257
 C          2.3830336591        3.1311778296        2.6465408003
 C          1.0331530863        3.4289252370        2.7564126233
 C          0.1680623159        3.1738482195        1.7042456899
 C          0.6523456706        2.6121286790        0.5336655820
 H          0.0085908409        2.3780019222       -0.3010040479
 H         -0.8813235292        3.4043535663        1.7893250389
 H          0.6499580222        3.8611161627        3.6672024555
 H          3.0517932258        3.3290898904        3.4686171445
 H          3.9178146586        2.3393678017        1.3492221015
 H          4.6002385551        0.5447927294       -1.0904532550
 H          5.0294696688       -1.7930874209       -1.1185770484
 H          4.1602577134       -4.0627875447       -0.6990659037
 H          1.8900762154       -4.3848951395        0.1768296129
 C          0.0522689318       -2.4119037282        0.8320489742
 H          0.0456598857       -2.1553894749        1.9024131792
 C         -0.5362533941       -3.7966476905        0.6573941412
 C         -0.3383407173       -4.8464824872        1.7087428708
 C         -1.6825958660       -4.2096016760        1.5297791152
 H         -2.4791536011       -4.7928857915        1.0926963652
 H         -2.0176520607       -3.5012518233        2.2733404568
 H         -0.2138591580       -5.8720856882        1.3952947297
 H          0.2353423588       -4.5776471075        2.5825972995
 H         -0.5608832450       -4.1066460763       -0.3815815765
 O         -1.3663050274       -0.3565441134        2.2184679970
