  62
        -98.94576003
 C         -1.3487189061       -1.7147515265       -0.3807760067
 C         -1.3006395944       -0.4300943943       -0.9778205139
 C         -2.4801174010        0.4190257640       -0.7598899638
 C         -3.4795003196        0.0000227462        0.0352518869
 C         -4.7476097931        0.7494789537        0.3433063998
 C         -4.6057662181        1.7880258389        1.4639945095
 C         -3.8313002274        3.0514027176        1.0868994697
 H         -4.2408964460        3.4667806897        0.1654821906
 H         -4.0046883815        3.7815344823        1.8800144107
 C         -2.3180634384        2.8458974715        0.9321405094
 H         -2.0128132610        1.9171037464        1.4207703431
 H         -1.7847365612        3.6506337851        1.4446825369
 C         -1.8191349046        2.8234640167       -0.5121205651
 H         -1.9588660119        3.8075116575       -0.9660029596
 H         -0.7489424895        2.6047714046       -0.4888445723
 C         -2.4929948186        1.7734442845       -1.4023737467
 H         -3.5151305302        2.0736749633       -1.6331038038
 H         -1.9260765481        1.7045778448       -2.3340810863
 H         -4.1264567097        1.3127548722        2.3232336876
 H         -5.6141005474        2.0819104504        1.7653039301
 H         -5.1141209594        1.2365668366       -0.5609058706
 H         -5.4799292292        0.0024607804        0.6574361192
 O         -3.4564107640       -1.2108620113        0.6531566840
 C         -2.4060003618       -2.0891763204        0.4539178573
 O         -2.5296239095       -3.1731829188        1.0618501848
 H          1.1401286989       -0.5203087019       -0.0792105779
 C          1.4842071751       -1.3397992382        0.5293492969
 C          0.8636977942       -2.5756302929        0.4236006395
 C          1.3147999448       -3.6221723640        1.2190528027
 C          2.3589236577       -3.4294211656        2.1062643067
 C          2.9598566486       -2.1894104779        2.2267020980
 C          2.5141075256       -1.1366948739        1.4352434497
 N          3.1085193267        0.1310962220        1.5174981333
 S          2.1809954908        1.5168703668        1.3601330338
 O          2.8793727707        2.5163633203        2.1454958651
 O          0.8066057497        1.2825954882        1.7383077624
 C          2.3018608534        1.9896771115       -0.3533226925
 C          1.7732598606        3.2217727240       -0.6862935180
 C          1.8334366404        3.6494464723       -2.0022808559
 C          2.4238057427        2.8409522275       -2.9607720950
 C          2.9619521217        1.6143027023       -2.6083503127
 C          2.9049012683        1.1805387868       -1.2926979714
 H          3.3139862453        0.2277868186       -0.9996388664
 H          3.4223060044        0.9867781244       -3.3547216703
 H          2.4642592507        3.1693663650       -3.9874608391
 H          1.4160643796        4.6057444684       -2.2742637401
 H          1.3291434227        3.8213793114        0.0931840015
 H          3.8070121579        0.2348778423        2.2384985702
 H          3.7643496684       -2.0333027730        2.9293415640
 H          2.7003644459       -4.2488889914        2.7204077638
 H          0.8306597200       -4.5853376638        1.1517809501
 C         -0.2692468972       -2.7721280510       -0.5544659304
 H         -0.7513201690       -3.7304870882       -0.3160509291
 C          0.2739425132       -2.8462914512       -1.9694986567
 C          0.9210469553       -4.1137375359       -2.4366281746
 C         -0.4170442620       -3.7107814621       -2.9786235389
 H         -0.4810499650       -3.3609624498       -3.9978291652
 H         -1.2871179520       -4.2620788071       -2.6518741437
 H          0.9579273076       -4.9426554519       -1.7461584897
 H          1.7805814535       -4.0434483018       -3.0851005391
 H          0.6870251631       -1.9082047278       -2.3153711176
 O         -0.3463873370        0.0064749790       -1.6747634792
