  62
        -98.94232403
 C          1.9872030760        1.3201381351       -0.1315890383
 C          3.0875390252        1.2120332214        0.7594746202
 C          4.2835068466        0.5389860786        0.2434341751
 C          4.2967801438        0.0857309182       -1.0227606019
 C          5.4495026482       -0.5942803929       -1.7101287406
 C          5.5430522392       -2.1005455521       -1.4306901900
 C          6.0135593591       -2.4727184390       -0.0240441774
 H          6.2432338097       -3.5400725366       -0.0349690269
 H          6.9399740115       -1.9429536552        0.1999187068
 C          4.9828462414       -2.2015475682        1.0809931632
 H          4.9215647878       -3.0685122341        1.7427360397
 H          3.9940025620       -2.0721108905        0.6344258399
 C          5.2938881768       -0.9860424209        1.9545815304
 H          6.2164614673       -1.1622737557        2.5120833885
 H          4.4814805848       -0.8668326022        2.6760392269
 C          5.4356972846        0.3299878455        1.1787090910
 H          5.4342030091        1.1533893710        1.8970607185
 H          6.3779401239        0.3443259264        0.6311739836
 H          4.5666176064       -2.5529691466       -1.6195626185
 H          6.2487850334       -2.5221388915       -2.1502544801
 H          5.3002193273       -0.4517470217       -2.7826650099
 H          6.3837041977       -0.1112536805       -1.4221687700
 O          3.2307217088        0.2196473841       -1.8526001190
 C          2.0451034877        0.8119312957       -1.4298250497
 O          1.1564514576        0.8120665541       -2.3029298532
 H         -0.2565067862       -0.1701428645       -0.8188123020
 C         -0.6739091804       -0.0336754615        0.1679703479
 C         -0.2611850108        1.0453203859        0.9380721655
 C         -0.8172508959        1.2112191750        2.2010715921
 C         -1.7560672084        0.3144600932        2.6820383147
 C         -2.1625203517       -0.7608313126        1.9130490589
 C         -1.6154446146       -0.9329954129        0.6474865979
 N         -2.0312257838       -2.0139095987       -0.1501310125
 S         -3.6803568646       -2.2750146670       -0.2842053559
 O         -4.1448169402       -3.0054625872        0.8691466394
 O         -3.8633351307       -2.9287585495       -1.5605100204
 C         -4.4067772729       -0.6457907249       -0.2989264376
 C         -5.2282087591       -0.2461499871        0.7354757155
 C         -5.7423768761        1.0406199589        0.7237373961
 C         -5.4251362829        1.9015468198       -0.3151924730
 C         -4.6031266913        1.4833683483       -1.3505386157
 C         -4.0860130623        0.1980076133       -1.3440220921
 H         -3.4444613749       -0.1578646450       -2.1352017672
 H         -4.3550145571        2.1545871571       -2.1569234451
 H         -5.8190337938        2.9054269260       -0.3207428252
 H         -6.3838335640        1.3679577810        1.5259009749
 H         -5.4479667546       -0.9475084453        1.5236691610
 H         -1.5852973870       -2.0387512302       -1.0556485376
 H         -2.8855870235       -1.4743113801        2.2735099573
 H         -2.1748631024        0.4524936315        3.6668908745
 H         -0.4979350329        2.0420865942        2.8127089279
 C          0.7518469002        2.0244468590        0.4023224694
 H          1.1212944458        2.6135550831        1.2565043607
 C          0.1514999832        3.0071170439       -0.5950537927
 C         -1.1437262055        2.7835540463       -1.3098174813
 C         -1.0592459727        3.8123610637       -0.2252415200
 H         -1.0866171324        4.8570872363       -0.4946144685
 H         -1.5384369368        3.5821621100        0.7142227478
 H         -1.6896035002        1.8760104202       -1.1067066325
 H         -1.2065235836        3.1080894226       -2.3372254084
 H          0.9239264138        3.5218125561       -1.1584379485
 O          3.0717028717        1.6712936445        1.9324301429
