  62
        -98.94065943
 C         -1.9638814383       -0.8489862456        0.7137368273
 C         -1.8545420515       -0.1807854803       -0.5317062093
 C         -2.0322413045        1.2764333557       -0.4918798271
 C         -2.2012663935        1.9022225576        0.6853234698
 C         -2.3532342698        3.3854446020        0.8894975565
 C         -3.7832390402        3.9037818701        0.6823155278
 C         -4.2579965933        3.9427139771       -0.7708445927
 H         -5.1812328671        4.5250287940       -0.7899278279
 H         -3.5234836048        4.4744366311       -1.3763234725
 C         -4.5319550716        2.5628775311       -1.3850739934
 H         -5.4858262763        2.5833450808       -1.9166399706
 H         -4.6248705981        1.8217444049       -0.5879033241
 C         -3.4699919292        2.0890430805       -2.3774892597
 H         -3.7451034082        1.0894938031       -2.7233380511
 H         -3.4554969647        2.7533222264       -3.2442408248
 C         -2.0521856526        2.0152104029       -1.7953960757
 H         -1.4152420548        1.4648388229       -2.4923090790
 H         -1.6410432890        3.0166620171       -1.6686660619
 H         -4.4653856531        3.2879536629        1.2730013727
 H         -3.8213465417        4.9195399763        1.0824853904
 H         -1.6694113335        3.9146099426        0.2247976692
 H         -2.0574733466        3.5871362702        1.9215550521
 O         -2.2336445339        1.2328532032        1.8699014632
 C         -2.1163622924       -0.1469469396        1.9104916371
 O         -2.1599935411       -0.6272346128        3.0629689678
 O         -1.6274361742       -0.7577806884       -1.6262524789
 C         -1.7526461519       -2.3502746568        0.8308290616
 C         -0.5104419386       -2.7202194484        0.0569137238
 C         -0.4561351728       -3.7085697490       -0.9158116193
 C          0.7200451415       -3.9390279695       -1.6091855317
 C          1.8511398035       -3.1838607991       -1.3627909595
 C          1.8090417275       -2.2004130052       -0.3798253521
 C          0.6434507257       -1.9979119824        0.3366877584
 H          0.6188114456       -1.2292222052        1.0974130420
 N          2.9409458328       -1.4174066587       -0.0879562962
 S          2.6966787987        0.1788257836        0.4069513110
 O          2.4302026416        0.1860169344        1.8252520357
 O          1.7214724171        0.8348242524       -0.4341409720
 C          4.3223422531        0.8487577624        0.1052328350
 C          5.3118984022        0.6433419800        1.0480058050
 C          6.5847170766        1.1325418967        0.8006307641
 C          6.8460914221        1.8134624433       -0.3792036280
 C          5.8426344213        2.0134119380       -1.3152930823
 C          4.5675548746        1.5259695766       -1.0743365527
 H          3.7531829308        1.6640559727       -1.7675969815
 H          6.0473260647        2.5460004922       -2.2299946608
 H          7.8373327111        2.1935603146       -0.5690941413
 H          7.3663182904        0.9817057188        1.5275296630
 H          5.0573380507        0.1166211330        1.9528969316
 H          3.6510478323       -1.4757516363       -0.8054946360
 H          2.7571474042       -3.3459302739       -1.9267237664
 H          0.7483107286       -4.7041124360       -2.3703089012
 H         -1.3399965151       -4.2769502976       -1.1543526412
 H         -1.5431032691       -2.5216930523        1.9005947168
 C         -2.9686400504       -3.1959237536        0.4850777360
 C         -4.3536582603       -2.6315171426        0.5876231288
 C         -3.7787242810       -2.9663162637       -0.7540342834
 H         -4.1699193179       -3.8276392260       -1.2756896679
 H         -3.4749400523       -2.1605566784       -1.4025467291
 H         -5.1350935917       -3.2598576992        0.9881031073
 H         -4.4476593857       -1.5898913836        0.8599142640
 H         -2.8483130601       -4.2264467084        0.8051841562
