  62
        -98.94075592
 C         -2.5287651973       -0.2604259545        0.0307362344
 C         -2.1890973698       -1.2896149209       -0.8740810877
 C         -1.4642806898       -2.4523230760       -0.3281909050
 C         -1.1947033493       -2.4839686131        0.9902235072
 C         -0.4279272780       -3.5202569180        1.7697639243
 C          1.0868609995       -3.3988737380        1.5607003294
 C          1.5232242438       -3.3323593445        0.0999977194
 H          1.1277863482       -2.4188975115       -0.3494946893
 H          2.6131979521       -3.2389634851        0.0864966495
 C          1.1463138307       -4.5420742967       -0.7540105121
 H          1.6555309723       -4.4218496244       -1.7134016763
 H          1.5340244142       -5.4473626067       -0.2816985039
 C         -0.3470975588       -4.7359282165       -1.0388594615
 H         -0.8504095079       -5.2391490590       -0.2170530299
 H         -0.4286218435       -5.3990796668       -1.9048431767
 C         -1.0948395900       -3.4554575154       -1.3940781461
 H         -0.5249520032       -2.9004225818       -2.1491647278
 H         -2.0395359090       -3.7213318349       -1.8836185618
 H          1.4221803066       -2.4775391189        2.0444884489
 H          1.5709515046       -4.2451113951        2.0528139083
 H         -0.6481374587       -3.3397683930        2.8245028588
 H         -0.7712672091       -4.5200349001        1.5219113604
 O         -1.5906336716       -1.4899717919        1.8366263133
 C         -2.2031957978       -0.3392516221        1.3839569290
 O         -2.4273918932        0.5106522286        2.2687714538
 H         -0.5168553705        0.8808612882       -0.9922339495
 C         -0.7701033616        1.8400175390       -0.5645443030
 C         -2.0960504241        2.1289256220       -0.2684419090
 C         -2.3987932042        3.3784989620        0.2550667356
 C         -1.3878008213        4.2905287632        0.5100148923
 C         -0.0631104971        3.9721386517        0.2733629378
 C          0.2467977711        2.7303109705       -0.2705963881
 N          1.5755940118        2.3483915747       -0.5338063508
 S          1.9583550800        0.7197628824       -0.2636620525
 O          1.6139689584       -0.0361117028       -1.4421260834
 O          1.3897587303        0.2722997428        0.9866207857
 C          3.7336708790        0.8311260217       -0.1331998990
 C          4.4793347898        0.9090805040       -1.2943467668
 C          5.8562654989        1.0333765078       -1.1991544023
 C          6.4613139551        1.0774937953        0.0482672722
 C          5.7002969748        0.9955870150        1.2046890957
 C          4.3223093719        0.8728423704        1.1162959140
 H          3.6895175813        0.7984145303        1.9864085280
 H          6.1731135562        1.0264747869        2.1730502591
 H          7.5330932499        1.1738720720        0.1198658925
 H          6.4511411407        1.0946659002       -2.0960469819
 H          3.9641690429        0.8610982897       -2.2394682566
 H          2.2504826631        2.9608531938       -0.0952869000
 H          0.7239071961        4.6725260991        0.5084760356
 H         -1.6347326652        5.2563124301        0.9244251141
 H         -3.4218140865        3.6319495618        0.4806025117
 C         -3.1107709720        1.0356633313       -0.5063523545
 H         -3.2134386230        0.8851533276       -1.5918156545
 C         -4.4734906134        1.3264985140        0.0820840426
 C         -5.4704920244        2.1355330695       -0.6914264386
 C         -5.6765998861        0.6621124357       -0.5149561900
 H         -6.4593402900        0.3236614799        0.1469245810
 H         -5.5129921230        0.0153503123       -1.3646902957
 H         -6.1172427123        2.8098276305       -0.1507854619
 H         -5.1753479582        2.4914362517       -1.6669212399
 H         -4.4443995384        1.4369327623        1.1600689717
 O         -2.4658912764       -1.2374363450       -2.1055875150
