  62
        -98.93181859
 C         -2.2799275204       -0.7667620087       -0.2425258595
 C         -1.2780985400       -0.9082811694        0.7426760599
 C         -0.3667197505       -2.0575698797        0.6002538090
 C         -0.5228690713       -2.8911449692       -0.4428285612
 C          0.3301238680       -4.0584476994       -0.8747267421
 C          0.9449236582       -4.9608054901        0.2041009572
 C          2.4442929884       -4.7342904107        0.4148670065
 H          2.8832985282       -5.6563458810        0.8028765859
 H          2.9028184780       -4.5383742605       -0.5568669736
 C          2.8149508493       -3.6084270512        1.3783224368
 H          2.5627140097       -3.9071921315        2.3980275468
 H          3.8988483593       -3.4798744716        1.3333509563
 C          2.1503858897       -2.2609692209        1.0937955077
 H          2.7481135402       -1.4799901213        1.5701449077
 H          2.1493379292       -2.0446033104        0.0236372478
 C          0.7158652100       -2.1661469905        1.6379081584
 H          0.5064889700       -3.0130844807        2.2954422082
 H          0.6126193006       -1.2654400108        2.2492034388
 H          0.8098641676       -5.9931151599       -0.1238017031
 H          0.4027526587       -4.8475696302        1.1405974075
 H         -0.3180876526       -4.6524827189       -1.5244999120
 H          1.1204925778       -3.6552518694       -1.5161503224
 O         -1.5306263317       -2.7374217585       -1.3505605607
 C         -2.4020165713       -1.6673869982       -1.2966058298
 O         -3.2357611618       -1.6286758775       -2.2273064394
 H         -1.1442838706        0.8886624315       -1.7645967994
 C         -1.2362886699        1.6898803813       -1.0449559390
 C         -2.2883154295        1.6728939313       -0.1291355685
 C         -2.3751667286        2.7349035910        0.7612880320
 C         -1.4263804982        3.7463071206        0.7532575919
 C         -0.3514732587        3.7158299906       -0.1132752287
 C         -0.2557161695        2.6639581309       -1.0172812891
 N          0.8354341200        2.5409208508       -1.9049091797
 S          1.8468857296        1.2214148603       -1.6765916508
 O          2.8705548091        1.3543094404       -2.6920796013
 O          1.0841042091        0.0003677306       -1.6974934809
 C          2.5807966205        1.4955114094       -0.0729222511
 C          3.8843496507        1.9502223289       -0.0107674915
 C          4.4437859314        2.2219405882        1.2270713583
 C          3.6895121920        2.0456791280        2.3775571186
 C          2.3813800417        1.5945329286        2.2969684891
 C          1.8155716310        1.3152997093        1.0618215393
 H          0.8021325708        0.9556250197        0.9806338896
 H          1.7872709521        1.4545761784        3.1860186993
 H          4.1223799925        2.2598904375        3.3420135085
 H          5.4618637716        2.5710362878        1.2902471779
 H          4.4305014203        2.0719573191       -0.9322554518
 H          1.4019228203        3.3761499006       -1.9698711197
 H          0.4053769116        4.4853024003       -0.0904322888
 H         -1.5174878776        4.5586221104        1.4581883522
 H         -3.1639344382        2.7889621010        1.4889071524
 C         -3.1861158100        0.4607806817       -0.2434752085
 H         -3.6283069205        0.4910618423       -1.2543113583
 C         -4.3425088696        0.2082699417        0.7115437619
 C         -4.3388907387        0.5101855411        2.1767706621
 C         -5.2710471889        1.2494558619        1.2615871428
 H         -6.3212743890        1.0007200322        1.3078931433
 H         -5.0868646086        2.2859091019        1.0327151932
 H         -4.7588646987       -0.2310540690        2.8413572620
 H         -3.4736538483        1.0060646107        2.5844578318
 H         -4.8163306001       -0.7301348080        0.4284441818
 O         -1.1247292892       -0.0926844199        1.6895096602
