  62
        -98.94507745
 C         -1.8522086508       -1.2755990997       -0.0460864804
 C         -3.0523125707       -0.8953886493        0.6004060095
 C         -3.8095189104        0.1880635808       -0.0370333708
 C         -3.3489470203        0.7473533604       -1.1709065509
 C         -4.0196125000        1.8449116205       -1.9520930511
 C         -3.7292684996        3.2574867605       -1.4263128214
 C         -4.4208790295        3.6184665010       -0.1109409915
 H         -4.3072063192        4.6957367410        0.0258922582
 H         -5.4883113696        3.4119006212       -0.1939569615
 C         -3.8510292897        2.9026190511        1.1218094986
 H         -2.8649940498        2.4962477308        0.8828669287
 H         -3.7099924595        3.6241476712        1.9299298785
 C         -4.7324329400        1.7780643914        1.6658621689
 H         -5.6725870799        2.1956020018        2.0327340588
 H         -4.2167115102        1.3168438815        2.5122812390
 C         -5.0508701703        0.6762397313        0.6466927291
 H         -5.4893883706       -0.1690682585        1.1827856493
 H         -5.7723491702        1.0384147513       -0.0853918210
 H         -2.6486926696        3.3754040702       -1.3136155115
 H         -4.0608150594        3.9639425604       -2.1907334616
 H         -3.6413843400        1.7744851901       -2.9742255711
 H         -5.0968328700        1.6767687108       -1.9682609711
 O         -2.1922905104        0.3510649000       -1.7649258208
 C         -1.4099933507       -0.6607835001       -1.2181115906
 O         -0.3709232607       -0.9025617305       -1.8569594905
 O         -3.4704588909       -1.4352844089        1.6604152596
 C         -1.0212642312       -2.3920441798        0.5547096398
 C          0.3882470590       -1.9492886301        0.8664169797
 C          1.4620871587       -2.8325013904        0.8446827899
 C          2.7396079288       -2.3989959707        1.1538640698
 C          2.9818240992       -1.0754114907        1.4718719196
 C          1.9187289594       -0.1817249204        1.4820554994
 C          0.6348256393       -0.6257095201        1.2037000194
 H         -0.1878308305        0.0785274701        1.2286445193
 N          2.1594521398        1.1763308796        1.7501229191
 S          3.4794122200        1.8869432190        0.9997588789
 O          4.6478107100        1.7081301089        1.8270567890
 O          3.0864443004        3.2602393391        0.7670865286
 C          3.7131320698        1.0241383186       -0.5459272609
 C          4.9694381197        0.5493449682       -0.8662885108
 C          5.1441391495       -0.1349934921       -2.0580906006
 C          4.0620690094       -0.3438327520       -2.8994802006
 C          2.8070071096        0.1405628185       -2.5651190107
 C          2.6307048298        0.8383975188       -1.3818327709
 H          1.6571084099        1.2130559391       -1.1081515009
 H          1.9512600995       -0.0381944714       -3.1961610307
 H          4.1938898793       -0.8900480122       -3.8201306805
 H          6.1194143594       -0.5114559324       -2.3216708705
 H          5.7777872897        0.7175153681       -0.1731664408
 H          1.3409941500        1.7606158498        1.6630520089
 H          3.9710035893       -0.7183397110        1.7094459495
 H          3.5601496386       -3.0994407810        1.1390073900
 H          1.2962789484       -3.8647332805        0.5838296901
 H         -1.5167571112       -2.6434238095        1.5053725098
 C         -1.0626942615       -3.6105016200       -0.3481423599
 C         -1.0913756319       -4.9925974799        0.2310101004
 C         -2.3215357417       -4.4215818797       -0.4053997598
 H         -2.6424078318       -4.8118261198       -1.3595567297
 H         -3.1354001816       -4.1158056093        0.2360768201
 H         -0.5670743221       -5.7803178901       -0.2888321095
 H         -1.0793998219       -5.0870748496        1.3064735804
 H         -0.5259052214       -3.4542917204       -1.2771378800
