  62
        -98.93799534
 C          2.5927835717        1.1564385556        0.4836641963
 C          3.4384227517        0.8410096554       -0.6092052184
 C          4.5906518338       -0.0170649201       -0.2927840138
 C          4.7937142785       -0.4417676218        0.9663452620
 C          5.9298238385       -1.3070190694        1.4399957850
 C          5.6964385701       -2.8099085233        1.2336318137
 C          5.7852108900       -3.2891276523       -0.2158847515
 H          6.7222586269       -2.9445457755       -0.6544484048
 H          5.8194608391       -4.3801154955       -0.1903427394
 C          4.6089515999       -2.8533785242       -1.1008855548
 H          4.2591026717       -3.7060111899       -1.6872411975
 H          3.7753915262       -2.5364034370       -0.4697125571
 C          4.9387627994       -1.7314220200       -2.0854432357
 H          5.6790866487       -2.0831352851       -2.8074293415
 H          4.0279100029       -1.4779333371       -2.6335436052
 C          5.4681206793       -0.4497931101       -1.4287514643
 H          6.4914063154       -0.5979520417       -1.0846833024
 H          5.4608811494        0.3467879430       -2.1767724826
 H          6.4534591146       -3.3399731048        1.8162817109
 H          4.7182382967       -3.0705266978        1.6443585443
 H          6.8517676685       -1.0082714483        0.9403435771
 H          6.0377056205       -1.1191338629        2.5104430349
 O          3.9659038256       -0.1046619509        1.9915990809
 C          2.8463756647        0.6779825832        1.7721278528
 O          2.1643075306        0.8906586438        2.7960207572
 O          3.2635951738        1.2416884418       -1.7872736180
 C          1.3492302204        2.0203384785        0.3496472714
 C          0.1598635355        1.1793829034       -0.0370968506
 C          0.1865141159        0.3631164765       -1.1639284976
 C         -0.9171560663       -0.3978132234       -1.5030637982
 C         -2.0632523481       -0.3674239765       -0.7273736669
 C         -2.0992638438        0.4395723332        0.4012627329
 C         -0.9912076541        1.2079746446        0.7361267476
 H         -1.0194335831        1.8277958719        1.6227548547
 N         -3.2544801531        0.4599577046        1.2008559986
 S         -4.7325062610        0.7442703002        0.4547948917
 O         -4.5704951525        1.5378822254       -0.7410854576
 O         -5.5757295995        1.3017479035        1.4893103181
 C         -5.3249729210       -0.8812898173        0.0360356496
 C         -5.6339390153       -1.1842399055       -1.2755324152
 C         -6.1021881184       -2.4536092518       -1.5775516308
 C         -6.2533633022       -3.3916376132       -0.5678551396
 C         -5.9414486799       -3.0703859272        0.7449719565
 C         -5.4739111168       -1.8030619613        1.0537120026
 H         -5.2249984774       -1.5125482922        2.0608148419
 H         -6.0609537799       -3.8024832274        1.5273590133
 H         -6.6169668192       -4.3789671077       -0.8051927910
 H         -6.3461517976       -2.7050073511       -2.5972508297
 H         -5.4967032764       -0.4241134038       -2.0281557769
 H         -3.1617689281        1.0173953706        2.0377393237
 H         -2.9239914943       -0.9615928959       -0.9873064047
 H         -0.8844989459       -1.0248316982       -2.3812120958
 H          1.0790322502        0.3386226289       -1.7704565124
 H          1.1623203282        2.4086953797        1.3636101719
 C          1.5546691745        3.2255576311       -0.5586389600
 C          0.8740162342        3.4073693590       -1.8784643604
 C          0.4602323181        4.2415817426       -0.7060448231
 H          0.7182780220        5.2896865269       -0.6926860597
 H         -0.4921460383        4.0160331268       -0.2482682095
 H          1.4423052962        3.8679879936       -2.6719171834
 H          0.1958076616        2.6411379385       -2.2188419134
 H          2.5656308995        3.6135596582       -0.4872226806
