  62
        -98.93980967
 C         -1.3993327486       -1.3040364890        0.0120207071
 C         -2.4474138689       -0.8904217336        0.8643277576
 C         -3.0966640295        0.3828780728        0.5228199290
 C         -2.6395125396        1.0894719170       -0.5275583082
 C         -3.2358031924        2.3696853322       -1.0400144393
 C         -4.5186114607        2.0727757024       -1.8429298088
 C         -5.7980591946        2.6244820026       -1.2137670781
 H         -5.8400354885        3.7024640866       -1.3825891974
 H         -6.6419685311        2.1742986212       -1.7405709501
 C         -5.9609360049        2.3797411840        0.2893600517
 H         -5.3632776130        3.1033788650        0.8459325459
 H         -7.0053255834        2.5845273344        0.5340064528
 C         -5.6071444726        0.9704254064        0.7813370189
 H         -6.3320098586        0.6861529026        1.5468082948
 H         -5.6982025984        0.2460151756       -0.0281262146
 C         -4.2113381282        0.8455917518        1.4206032061
 H         -3.9335241272        1.7971396773        1.8839133825
 H         -4.2575122226        0.0960691074        2.2167431356
 H         -4.4233364868        2.4899287206       -2.8464242132
 H         -4.6056399837        0.9904670910       -1.9586129046
 H         -3.4479558764        3.0335711404       -0.2046590436
 H         -2.4858761353        2.8428742369       -1.6744858968
 O         -1.6113377074        0.6725684015       -1.3078338632
 C         -0.9479134227       -0.5129151986       -1.0448917460
 O          0.0001946197       -0.7552825341       -1.8158230381
 O         -2.8160998720       -1.5532616636        1.8743788687
 C         -0.6589550524       -2.5958600316        0.3161966079
 C          0.8004420117       -2.2776108428        0.5231853418
 C          1.8406467588       -2.9645982901       -0.0885998994
 C          3.1511511740       -2.5456366109        0.0693972958
 C          3.4489806029       -1.4224138142        0.8195225545
 C          2.4171354690       -0.7475369010        1.4569222392
 C          1.1138516421       -1.1918558190        1.3324447290
 H          0.3165200371       -0.6457459569        1.8223734655
 N          2.7126032212        0.4664735799        2.1482925606
 S          2.3450209504        1.7852298345        1.1518880676
 O          2.7304828193        2.9623493840        1.9029062217
 O          0.9609649526        1.7569927872        0.7254682634
 C          3.4486280952        1.5357536284       -0.2166643548
 C          3.0143780308        0.8377204452       -1.3261160568
 C          3.9133995755        0.6063051278       -2.3564024098
 C          5.2162672941        1.0699282687       -2.2593766990
 C          5.6339120502        1.7700912496       -1.1370718393
 C          4.7435574365        2.0039456676       -0.1021081887
 H          5.0175679222        2.5428663698        0.7899220650
 H          6.6475713788        2.1299558718       -1.0648810451
 H          5.9097133556        0.8831675476       -3.0642166989
 H          3.5840272333        0.0585236572       -3.2246910004
 H          1.9956565488        0.4821532618       -1.3745135407
 H          2.1722890975        0.5678010545        2.9985010116
 H          4.4590080890       -1.0587750991        0.9146388474
 H          3.9464849766       -3.0850391100       -0.4208924512
 H          1.6220270839       -3.8187118396       -0.7084210918
 H         -1.0808745085       -2.9631487734        1.2635140729
 C         -0.9085181784       -3.6244699799       -0.7661873191
 C         -0.8501318814       -5.0876910728       -0.4459726500
 C         -2.1693110338       -4.4328008804       -0.7212066238
 H         -2.6735336573       -4.6530302840       -1.6501054330
 H         -2.8397937635       -4.2580079614        0.1076239214
 H         -0.4510022748       -5.7624594959       -1.1879081034
 H         -0.6275603405       -5.3678058695        0.5724241856
 H         -0.5593178326       -3.2952902207       -1.7384842864
