  62
        -98.94145695
 C         -1.7549147181       -0.8773273475        0.2420108940
 C         -2.0021765008        0.4864810907       -0.0712597399
 C         -3.3142133096        0.7976165969       -0.6464058613
 C         -4.1923089408       -0.1957289412       -0.8728507284
 C         -5.5621661673       -0.0499334760       -1.4780032585
 C         -6.6500432364        0.3508898821       -0.4722548071
 C         -6.5854519592        1.7999519903        0.0119592910
 H         -6.5387552243        2.4674597633       -0.8490342670
 H         -7.5227492158        2.0055291043        0.5328717067
 C         -5.4171244902        2.0984403114        0.9619296801
 H         -5.7807894226        2.6741188734        1.8161129175
 H         -5.0188332879        1.1602522959        1.3551865267
 C         -4.2744230276        2.8949875324        0.3319683463
 H         -4.6310499739        3.8890965897        0.0535374587
 H         -3.4882742182        3.0161245069        1.0813581712
 C         -3.6510945739        2.2351515191       -0.9050618138
 H         -4.3259615663        2.3194990893       -1.7566369288
 H         -2.7205734277        2.7568968795       -1.1408720033
 H         -6.5979547772       -0.3230966681        0.3859692080
 H         -7.6160334800        0.1952702996       -0.9582456865
 H         -5.5288904989        0.6782832284       -2.2888853203
 H         -5.8223156621       -1.0247643452       -1.8960835820
 O         -3.9115198146       -1.4921573258       -0.5847252545
 C         -2.7030103121       -1.8684015170       -0.0131364685
 O         -2.6234228712       -3.0948007656        0.1997691176
 H          1.9560658160       -0.0776071886        0.2091112954
 C          1.7776914480       -0.9846990061       -0.3476314962
 C          0.5928275794       -1.6813802288       -0.1615177290
 C          0.3702760568       -2.8371888216       -0.9023575995
 C          1.3189171112       -3.2785236503       -1.8063327240
 C          2.5109237368       -2.5946934106       -1.9711851757
 C          2.7436078990       -1.4400118664       -1.2339938958
 N          3.9355182919       -0.7183157810       -1.3818523909
 S          4.6560097246       -0.0013620802       -0.0518584420
 O          6.0435243874        0.1521834010       -0.4340103139
 O          4.4086399826       -0.7519044369        1.1567039711
 C          3.9046442529        1.6083372131        0.0496950537
 C          3.3740320358        2.0417194296        1.2480937403
 C          2.8100893304        3.3057525723        1.3143224664
 C          2.7881072850        4.1103556573        0.1860469162
 C          3.3290373218        3.6620053182       -1.0094792022
 C          3.8950703230        2.3997195296       -1.0815913555
 H          4.3269448866        2.0178606421       -1.9916010183
 H          3.3084407149        4.2917103085       -1.8844221437
 H          2.3448442224        5.0921593022        0.2397806853
 H          2.3863065533        3.6547987811        2.2423608107
 H          3.4059103817        1.3809995932        2.1005972197
 H          4.6142123690       -1.1359337967       -2.0014884211
 H          3.2561273006       -2.9510199686       -2.6662732888
 H          1.1344274507       -4.1742636013       -2.3802821331
 H         -0.5513011626       -3.3813101455       -0.7641505066
 C         -0.4039709693       -1.1884649638        0.8604318792
 H         -0.0338071408       -0.2242082469        1.2352738221
 C         -0.4639201561       -2.1596582919        2.0249258314
 C          0.7262475870       -2.2691623933        2.9292024096
 C         -0.5355650138       -1.6292469593        3.4237317943
 H         -1.1348523856       -2.1621947660        4.1466976032
 H         -0.5469971985       -0.5567343062        3.5526852789
 H          0.9918578693       -3.2430675892        3.3113875122
 H          1.5785620205       -1.6394618815        2.7180151902
 H         -1.0121591310       -3.0657324681        1.8026648595
 O         -1.1606882324        1.4028195018        0.1261119282
