  62
        -98.93427035
 C         -2.4462112783       -0.0889461825       -0.4988755144
 C         -3.4476580829        0.7392555569        0.0661660028
 C         -4.6339062535        0.0396775237        0.5900529181
 C         -4.6885823326       -1.3029648713        0.5501178050
 C         -5.8531393068       -2.1310119884        1.0088675937
 C         -6.8380512238       -2.3912645326       -0.1395414307
 C         -7.2274646577       -1.1335322421       -0.9162575731
 H         -7.9471401541       -1.4333357366       -1.6811337917
 H         -6.3470128462       -0.7493319666       -1.4364643623
 C         -7.8329020262       -0.0169933226       -0.0542221651
 H         -8.1719854907       -0.4266439570        0.8979178115
 H         -8.7108130489        0.3833733603       -0.5657423462
 C         -6.8939442148        1.1620799239        0.2076386861
 H         -7.4838778104        1.9779421543        0.6338049555
 H         -6.4803544323        1.5183023139       -0.7392492847
 C         -5.7305636968        0.8889741216        1.1692642445
 H         -6.1119875122        0.4491578380        2.0929992469
 H         -5.2678717500        1.8502440038        1.4117428701
 H         -7.7340974621       -2.8579987426        0.2735715936
 H         -6.3784573752       -3.0955867571       -0.8368028718
 H         -5.4722476531       -3.0866388057        1.3730529790
 H         -6.3578970105       -1.6178089231        1.8250937578
 O         -3.6904342581       -2.0666267650        0.0360725678
 C         -2.5599953878       -1.4820591085       -0.5061347594
 O         -1.7333964079       -2.2967174653       -0.9648802020
 H          1.3470195164       -0.5203210939       -1.1842769522
 C          1.1600773458        0.0353359453       -0.2750408264
 C         -0.0906582092        0.5979569168       -0.0681675312
 C         -0.3226040637        1.2942294047        1.1137803089
 C          0.6781653816        1.4192267612        2.0601382625
 C          1.9229418988        0.8511274030        1.8533961042
 C          2.1644906175        0.1517610714        0.6786458117
 N          3.4188964153       -0.4493937531        0.4704534336
 S          4.7878592101        0.4637694677        0.8574132188
 O          5.0116312187        0.3721454152        2.2782171595
 O          4.6554166178        1.8010049955        0.3239082786
 C          6.0537035833       -0.4361972257       -0.0146858088
 C          6.5681152116       -1.5824870555        0.5610454588
 C          7.5353630275       -2.2992898999       -0.1250779907
 C          7.9688749922       -1.8609989975       -1.3677237129
 C          7.4436481681       -0.7082328445       -1.9319369279
 C          6.4746863493        0.0128418417       -1.2519503623
 H          6.0448400770        0.9189233280       -1.6481757474
 H          7.7847396146       -0.3688409287       -2.8967318107
 H          8.7230574396       -2.4199439680       -1.8988148156
 H          7.9479558591       -3.1948969471        0.3106341801
 H          6.2077605846       -1.8796453144        1.5320177306
 H          3.4999775176       -0.8517891388       -0.4534836813
 H          2.7104596729        0.9450973947        2.5836829064
 H          0.4875102877        1.9654600940        2.9720687056
 H         -1.2911838264        1.7413455779        1.2785408369
 C         -1.1662257919        0.4528022316       -1.1145780501
 H         -0.8359977954       -0.3285877309       -1.8175679242
 C         -1.3828149806        1.7222085463       -1.9274729460
 C         -0.8825839282        3.0717084073       -1.5195809846
 C         -0.2299775916        2.3478175500       -2.6561504076
 H         -0.3849825979        2.7078635830       -3.6619007121
 H          0.7520532615        1.9341337698       -2.4798780173
 H         -0.3376196887        3.1590248934       -0.5928963788
 H         -1.5121903167        3.9218402392       -1.7331197376
 H         -2.3332298662        1.7055068960       -2.4512001969
 O         -3.3772071875        1.9921555398        0.1413370626
