  62
        -98.94626873
 C         -1.1986192390       -1.7467834679       -0.1884968507
 C         -1.3571830985       -0.6212197574       -1.0355570023
 C         -2.6877193081        0.0100686087       -1.0214391300
 C         -3.6579546362       -0.4926934923       -0.2390074677
 C         -5.0303186794        0.0939062240       -0.0819609763
 C         -5.0754896962        1.0963169770        1.0794977006
 C         -3.9521277158        2.1335215240        1.0490004597
 H         -2.9924726173        1.6372140008        1.2140971188
 H         -4.1089085433        2.8081285649        1.8938833716
 C         -3.8745379190        2.9504894346       -0.2480062612
 H         -3.7279165113        4.0014582200        0.0102623486
 H         -4.8182834139        2.8767108347       -0.7909512140
 C         -2.7215847175        2.5573276190       -1.1737623293
 H         -1.7873641487        2.5416006681       -0.6048983980
 H         -2.6240049918        3.3326485695       -1.9395867548
 C         -2.8829530988        1.2144805274       -1.8984608381
 H         -2.1059375630        1.1558290781       -2.6663786871
 H         -3.8570465963        1.1785768662       -2.3916693190
 H         -5.0028423393        0.5424330222        2.0184100208
 H         -6.0409889988        1.6053472101        1.0589722977
 H         -5.3195887556        0.5838634394       -1.0096299560
 H         -5.7298919001       -0.7181740152        0.1237731780
 O         -3.4779344415       -1.5864496973        0.5449026826
 C         -2.2500738280       -2.2231762792        0.5996854133
 O         -2.2200420664       -3.2040468829        1.3715417837
 H          0.5730110176        0.1310527796        0.4508759158
 C          1.1160339329       -0.5061990672        1.1296039455
 C          0.9737428320       -1.8828723095        1.0496871267
 C          1.6679212024       -2.6800557843        1.9527792356
 C          2.4837217143       -2.1080160793        2.9120456986
 C          2.6343854868       -0.7346883763        2.9806252984
 C          1.9412193568        0.0716262305        2.0841845110
 N          2.0651767028        1.4638191430        2.1307578952
 S          1.7788774898        2.4071759725        0.7850832851
 O          2.4957090082        3.6360136612        1.0655052993
 O          0.3609167719        2.5563581215        0.5763946493
 C          2.5479271965        1.5767490737       -0.5940141596
 C          1.9280132011        1.6165943592       -1.8250683309
 C          2.5307002574        0.9816628659       -2.8995230415
 C          3.7360287690        0.3215146905       -2.7247328652
 C          4.3529842764        0.3013458101       -1.4830992967
 C          3.7579616359        0.9375890558       -0.4065771865
 H          4.2187670855        0.9340402049        0.5676957358
 H          5.2912391566       -0.2125666841       -1.3491845154
 H          4.1961934115       -0.1817298705       -3.5607238711
 H          2.0449448592        0.9940988496       -3.8618712643
 H          0.9763670315        2.1133488996       -1.9182681672
 H          2.7917604986        1.8288334500        2.7271590859
 H          3.2725286485       -0.2863166079        3.7264451350
 H          3.0122121156       -2.7368383231        3.6120338198
 H          1.5522517125       -3.7524408620        1.9091627177
 C          0.1096758724       -2.5017006392       -0.0243531407
 H         -0.1664611271       -3.5118225700        0.3093480660
 C          0.9205032873       -2.6214878615       -1.3016192983
 C          1.8304802224       -3.7966078514       -1.4874568205
 C          0.5745940458       -3.6848516327       -2.2977888923
 H          0.6502755452       -3.4476983250       -3.3479630469
 H         -0.2480867228       -4.3433361203       -2.0582921200
 H          1.8602763440       -4.5406810549       -0.7062303002
 H          2.7762258991       -3.6386033438       -1.9817234937
 H          1.2472396639       -1.6649603709       -1.6883293023
 O         -0.4569019019       -0.1485936406       -1.7762317041
