  62
        -98.94486134
 C         -1.4243320095       -0.7765152408        0.3213898599
 C         -2.4295496595       -0.7977444109       -0.6769968001
 C         -3.3185685301        0.3726008387       -0.7104226297
 C         -3.1085912806        1.4062754985        0.1228779406
 C         -3.9114458811        2.6772520881        0.1818402210
 C         -5.1842761511        2.5696428073        1.0330794110
 C         -6.3150366107        1.7471379569        0.4137517107
 H         -7.2107069008        1.9354587163        1.0091770008
 H         -6.5143684509        2.1073663072       -0.5959960891
 C         -6.0542140900        0.2346675271        0.3808088902
 H         -5.2461226099       -0.0112026828        1.0737856801
 H         -6.9439209698       -0.2958379735        0.7277356900
 C         -5.7067765898       -0.3185326623       -1.0014273600
 H         -6.5629864098       -0.1995145425       -1.6691302699
 H         -5.5044696493       -1.3879117822       -0.9009112203
 C         -4.4826967501        0.3368329185       -1.6541748898
 H         -4.1918215698       -0.2643319911       -2.5188328200
 H         -4.7306149905        1.3420366385       -1.9935962094
 H         -4.9193542109        2.1494527771        2.0062397809
 H         -5.5519628116        3.5849025170        1.1992837814
 H         -3.2643897415        3.4352652283        0.6283716313
 H         -4.1735758613        2.9939873284       -0.8279500388
 O         -2.0917704606        1.4173717187        1.0259526206
 C         -1.2593458900        0.3208945190        1.1714901802
 O         -0.4129428501        0.4444226791        2.0808012603
 H          2.1307978907       -1.3104443794        1.0871650097
 C          1.9701855208       -1.4693988691        0.0315678996
 C          0.7076133509       -1.8026155395       -0.4368630805
 C          0.5304178810       -2.0055326291       -1.8018316206
 C          1.5982664810       -1.8767627183       -2.6703439805
 C          2.8537814808       -1.5303072279       -2.2016598404
 C          3.0401887907       -1.3214659283       -0.8406064403
 N          4.3049057006       -0.9776061379       -0.3343801802
 S          4.4473750900        0.2408551418        0.8047848302
 O          5.8551873098        0.5748963425        0.7913347103
 O          3.9136330802       -0.1976539189        2.0678691200
 C          3.5035726494        1.5961976216        0.1325250407
 C          4.1205796890        2.3968797322       -0.8105215391
 C          3.3988724885        3.4198481421       -1.4017276487
 C          2.0717737584        3.6189380013       -1.0501746687
 C          1.4686366288        2.8074636607       -0.1027842189
 C          2.1869207293        1.7849687509        0.4986977307
 H          1.7283617796        1.1519333204        1.2423729405
 H          0.4372717787        2.9533095702        0.1799714011
 H          1.5049758481        4.4116404012       -1.5126963384
 H          3.8686031282        4.0562378125       -2.1342981085
 H          5.1564775491        2.2143175328       -1.0468990191
 H          5.0218793705       -0.8879240473       -1.0401725502
 H          3.6848193708       -1.4250060773       -2.8823477704
 H          1.4502212310       -2.0393925380       -3.7271558506
 H         -0.4529273089       -2.2479108995       -2.1736870106
 C         -0.4401734790       -1.9163482104        0.5378335995
 H         -0.0304386791       -1.7681773705        1.5467274795
 C         -1.0829796584       -3.2879534907        0.4844175290
 C         -0.3712462978       -4.4411545805        1.1223553786
 C         -1.6197489081       -3.8929605313        1.7447645188
 H         -2.5252700078       -4.4785358517        1.6907105086
 H         -1.5253113184       -3.3195521716        2.6560742890
 H         -0.4173271874       -5.4058073204        0.6408968883
 H          0.5699830021       -4.2385199003        1.6119105787
 H         -1.6321979883       -3.4757420606       -0.4280756011
 O         -2.5991767591       -1.7284946107       -1.5066214805
