  62
        -98.93762931
 C         -2.6443898561       -1.1125534436        0.2032748048
 C         -2.7199314909       -0.2414241390       -0.9093256382
 C         -3.5164644291        0.9836014426       -0.7213850537
 C         -4.1196693309        1.2066755575        0.4587145665
 C         -5.0007200610        2.3654509487        0.8530316687
 C         -4.5371381480        3.7729081081        0.4490249726
 C         -3.0147009242        3.9676442343        0.3922434982
 H         -2.7502898957        4.8587446438        0.9649349558
 H         -2.5099673117        3.1202488762        0.8601378326
 C         -2.4885676163        4.1531910890       -1.0334365464
 H         -3.1639011159        4.8238292610       -1.5691370327
 H         -1.5125158898        4.6419877056       -0.9860000890
 C         -2.3126339218        2.8692175420       -1.8438388171
 H         -1.4699574286        2.2929982090       -1.4512551699
 H         -2.0562935053        3.1508020190       -2.8678155353
 C         -3.5348473914        1.9373242697       -1.8808608444
 H         -4.4621529374        2.5033266138       -1.9230710803
 H         -3.4587750403        1.3206672381       -2.7803304429
 H         -4.9621252187        4.0318280989       -0.5197419037
 H         -4.9649556405        4.4662261906        1.1750360504
 H         -6.0001997596        2.1874223887        0.4461620845
 H         -5.0806390303        2.3040319285        1.9410348431
 O         -4.0207238023        0.3360936899        1.5045307811
 C         -3.2756915376       -0.8274703464        1.4113206386
 O         -3.2481925478       -1.5078269710        2.4584248831
 H         -0.3493002812       -0.4061902860        1.1169525069
 C          0.2205036946       -0.9835204958        0.3975387955
 C         -0.3896220326       -2.0561415124       -0.2411953807
 C          0.3606751885       -2.7987460378       -1.1433809392
 C          1.6752175152       -2.4568798459       -1.4110032301
 C          2.2691328330       -1.3733309760       -0.7911428172
 C          1.5331214920       -0.6318413981        0.1239850080
 N          2.1220389488        0.4801340053        0.7522576631
 S          3.6097414389        0.2682371498        1.5027969723
 O          3.7761178821       -1.0877487480        1.9728169369
 O          3.6773150043        1.3089066311        2.5056995194
 C          4.7919680671        0.6207936918        0.2194981039
 C          4.6938912802        1.8293118728       -0.4418972905
 C          5.6127861970        2.1235986043       -1.4364524171
 C          6.6102275455        1.2115147847       -1.7482590423
 C          6.6971892537        0.0041203363       -1.0723387514
 C          5.7800868741       -0.2973181884       -0.0773252500
 H          5.8039670461       -1.2257528413        0.4705959864
 H          7.4734883269       -0.7032110341       -1.3160730754
 H          7.3237924354        1.4435723925       -2.5230333777
 H          5.5477045758        3.0611466640       -1.9647807209
 H          3.9058108868        2.5108401061       -0.1678989801
 H          1.4910248507        0.9831604677        1.3591546352
 H          3.2890485159       -1.0983725519       -1.0048529961
 H          2.2439900332       -3.0402738235       -2.1187632255
 H         -0.0853780632       -3.6442353372       -1.6406767361
 C         -1.8220472460       -2.3837354686        0.1092411547
 H         -1.8305397047       -2.8281861009        1.1161419981
 C         -2.4711436880       -3.3539267330       -0.8565594666
 C         -2.3415539563       -4.8320971443       -0.6486362424
 C         -3.6512056841       -4.1510557778       -0.3913095662
 H         -4.4658835699       -4.3175958525       -1.0798478921
 H         -3.9671248578       -4.0142148367        0.6330957243
 H         -1.7715278063       -5.1701549307        0.2037570471
 H         -2.2606465643       -5.4699961470       -1.5158748581
 H         -2.4904241132       -2.9763325081       -1.8723061304
 O         -2.1539282851       -0.4726650090       -2.0080698904
