  62
        -98.93783890
 C         -1.3394096056       -1.5085354775       -0.5767784573
 C         -2.5593454472       -1.5090040203        0.1414865820
 C         -3.5726064282       -0.5027782556       -0.2269554562
 C         -3.2889822215        0.3603672765       -1.2198162267
 C         -4.1282856571        1.4961434825       -1.7429798747
 C         -4.1182862697        2.7134547163       -0.8063156462
 C         -4.3253458764        2.3857461692        0.6698277204
 H         -3.5280007150        1.7172710971        1.0010494250
 H         -4.2163840740        3.3166460269        1.2329999658
 C         -5.6830409329        1.7805134671        1.0205365876
 H         -6.4724299599        2.4621896878        0.6963473750
 H         -5.7317517537        1.7103334799        2.1101634580
 C         -5.9690836276        0.3911100220        0.4446128606
 H         -6.8232332635       -0.0175128082        0.9923228885
 H         -6.2709553141        0.4499654114       -0.5977282662
 C         -4.8290484536       -0.6095495953        0.6034372726
 H         -4.5019195947       -0.6197754012        1.6495429151
 H         -5.2191390124       -1.6171461495        0.4153932737
 H         -3.1471714517        3.2066498927       -0.9023433728
 H         -4.8880116815        3.4121342440       -1.1395687992
 H         -5.1440964882        1.1604113993       -1.9294526573
 H         -3.6926481771        1.7920042345       -2.7000754804
 O         -2.1054638982        0.3224347402       -1.8916692505
 C         -1.0967510792       -0.5781086476       -1.5877493316
 O         -0.0813050704       -0.4444881190       -2.2949565797
 O         -2.8009836061       -2.3309189119        1.0684970315
 C         -0.3031614035       -2.5305190887       -0.1469080500
 C          0.5379341894       -1.9986692235        0.9882633041
 C          0.9229648370       -2.8229603829        2.0396685921
 C          1.6966841469       -2.3252937152        3.0732513092
 C          2.0906601040       -0.9998399116        3.0841430735
 C          1.6936220449       -0.1603264222        2.0472961170
 C          0.9348635249       -0.6695233791        1.0033249746
 H          0.6238209287       -0.0108601097        0.2096193878
 N          2.0274999098        1.1957320155        2.0733740770
 S          2.0553589240        2.2019754660        0.7452780201
 O          2.5946507123        3.4370732482        1.2755572386
 O          0.7479199635        2.2893757017        0.1463114274
 C          3.2529729919        1.4886349781       -0.3663235917
 C          2.8666613415        0.8304790642       -1.5149685347
 C          3.8497518835        0.2932805556       -2.3340948329
 C          5.1865500874        0.4137309222       -1.9921529147
 C          5.5572480786        1.0778248312       -0.8318123275
 C          4.5834741601        1.6216104957       -0.0122781513
 H          4.8287129543        2.1650033477        0.8857150920
 H          6.5979339594        1.1739174811       -0.5673517619
 H          5.9425897967       -0.0097838736       -2.6343218139
 H          3.5535532225       -0.2193043118       -3.2351582357
 H          1.8212026136        0.7308246494       -1.7638005614
 H          2.6669808596        1.4817955326        2.7978985905
 H          2.6826539126       -0.6081797192        3.8967815935
 H          1.9909809502       -2.9743586493        3.8838252291
 H          0.5937974249       -3.8514067837        2.0553926189
 H         -0.8867851675       -3.3763017775        0.2521352211
 C          0.5405998759       -3.0598919800       -1.2977705137
 C          1.9743944965       -2.6833121137       -1.5006408950
 C          1.6241519919       -4.0676212164       -1.0500279026
 H          1.7351902326       -4.8829053957       -1.7486317444
 H          1.8428362779       -4.3284194345       -0.0263038656
 H          2.3120101902       -2.5333281043       -2.5139189001
 H          2.4276266184       -2.0097289337       -0.7894898620
 H         -0.0506313650       -3.1947879955       -2.1976722475
