  62
        -98.94418511
 C          0.8951139383        1.7118510794       -0.4476510673
 C          2.0353074006        1.8314282316        0.3910161794
 C          3.1536225535        0.9276055839        0.1086945580
 C          3.0667561860        0.0661737089       -0.9207127084
 C          4.1552413638       -0.8602014321       -1.3925206705
 C          4.2305819522       -2.1913795782       -0.6341381179
 C          4.7529438251       -2.0966675732        0.7993259100
 H          4.9470692077       -3.1159253753        1.1388070803
 H          5.7057838828       -1.5664789910        0.8049573889
 C          3.7807214049       -1.4245421163        1.7789169129
 H          2.7804679161       -1.3966895384        1.3400198241
 H          3.7131009953       -2.0190805056        2.6924283384
 C          4.1807559354       -0.0074860703        2.1905957237
 H          5.1192951212       -0.0385313114        2.7487058801
 H          3.4075669288        0.3892325303        2.8535750597
 C          4.3444205126        0.9682703875        1.0176084839
 H          4.4214292688        1.9812313453        1.4201713157
 H          5.2556521226        0.7422476293        0.4638047699
 H          3.2360163331       -2.6384144524       -0.6267639274
 H          4.8939577918       -2.8506181323       -1.1988484968
 H          3.9460077455       -1.0735838057       -2.4431145599
 H          5.1163692112       -0.3484385247       -1.3295626886
 O          1.9564483668       -0.0281732581       -1.6962324925
 C          0.8394429068        0.7698940366       -1.4749424752
 O         -0.0949435981        0.5323162815       -2.2649715783
 O          2.1199885198        2.6774000738        1.3214146180
 C         -0.2407823667        2.6796256441       -0.1702205354
 C         -1.2810723065        2.1029033034        0.7611864933
 C         -1.6467565859        2.7933405375        1.9106908729
 C         -2.6327163777        2.2979942506        2.7447295900
 C         -3.2706523377        1.1097419783        2.4444173004
 C         -2.9052583070        0.4036976812        1.3010951549
 C         -1.9104167545        0.8997183841        0.4695725286
 H         -1.6420389559        0.3601321031       -0.4249340800
 N         -3.5256218601       -0.8127660937        1.0177922763
 S         -3.3655799859       -1.6929439975       -0.3816131592
 O         -3.5012450424       -0.8749800735       -1.5615148908
 O         -4.3535075421       -2.7422544774       -0.2288274723
 C         -1.7491521667       -2.4249586521       -0.2576830952
 C         -0.8681564253       -2.3666920610       -1.3166650779
 C          0.3569000232       -3.0067837372       -1.2019781372
 C          0.6737077705       -3.6914397580       -0.0394974909
 C         -0.2216321096       -3.7350953108        1.0188992376
 C         -1.4464603248       -3.0995469032        0.9096431600
 H         -2.1733099094       -3.1224663170        1.7045083116
 H          0.0325908221       -4.2642743221        1.9231525139
 H          1.6219355087       -4.1999580719        0.0444265443
 H          1.0543619350       -2.9585145061       -2.0236963968
 H         -1.1365963240       -1.8057785448       -2.1981834605
 H         -4.3163438633       -1.0686618355        1.5866402390
 H         -4.0459296641        0.7234816636        3.0879506281
 H         -2.9102831459        2.8436833975        3.6336146955
 H         -1.1463426664        3.7193984436        2.1517398698
 H          0.2303157484        3.5266915545        0.3485757219
 C         -0.9197511336        3.2076349990       -1.4194112094
 C         -1.5743626814        4.5545844453       -1.3785316984
 C         -0.3087470905        4.3589433624       -2.1573680134
 H         -0.3557294755        4.3612773525       -3.2359515551
 H          0.6043273040        4.7779153739       -1.7596132954
 H         -2.4967025099        4.6931317127       -1.9215473327
 H         -1.5189982410        5.1126051823       -0.4561286925
 H         -1.3971771864        2.4349368257       -2.0086206997
