  62
        -98.94701639
 C          1.5223067997        1.0603700392        0.0675224296
 C          2.5304913100        0.6000697192        0.9446803692
 C          3.0903847198       -0.7199025409        0.6384839790
 C          2.5975256593       -1.4304904809       -0.3928288708
 C          3.0410329191       -2.8071311409       -0.8083555109
 C          4.2831309487       -2.8213482811       -1.7101830214
 C          5.6008254990       -2.4910877911       -1.0078676119
 H          5.7108712493       -3.1270449811       -0.1289410820
 H          6.4052986887       -2.7484030112       -1.6995912523
 C          5.7502584693       -1.0181503611       -0.6024993121
 H          6.7428467592       -0.6612215012       -0.8857157625
 H          5.0233030591       -0.4144522611       -1.1504397018
 C          5.5838488399       -0.7525602210        0.8935737180
 H          6.3843871001       -1.2493722311        1.4460104877
 H          5.6744453200        0.3233518790        1.0630591479
 C          4.2374137601       -1.2100734609        1.4702461686
 H          4.2107433401       -2.2968030409        1.5520671286
 H          4.1284249305       -0.7826504009        2.4704092286
 H          4.1235940984       -2.1222114311       -2.5341545913
 H          4.3637931585       -3.8242881311       -2.1355292714
 H          3.2245850394       -3.4142199109        0.0789093691
 H          2.2053047988       -3.2464263809       -1.3577943205
 O          1.5971776690       -0.9710734109       -1.1880411004
 C          1.0299357492        0.2738299692       -0.9751270902
 O          0.1180965789        0.5668606492       -1.7721621198
 H         -0.3011325996        0.5856554394        1.8249486304
 C         -1.0327362398        1.1976257594        1.3108450206
 C         -0.6012619601        2.2348849294        0.4924272204
 C         -1.5587347003        3.0072061594       -0.1519004392
 C         -2.9062833002        2.7193558995       -0.0139864887
 C         -3.3249938400        1.6447014195        0.7493095315
 C         -2.3750852898        0.8843372795        1.4172181912
 N         -2.8007409196       -0.2808210804        2.1241817014
 S         -2.5614690300       -1.6472945905        1.1544309714
 O         -3.0800111898       -2.7641295204        1.9173489716
 O         -1.1767661902       -1.7724324806        0.7486400308
 C         -3.6157725706       -1.3021327405       -0.2318539182
 C         -4.9582872606       -1.6082887504       -0.1175413677
 C         -5.8080297810       -1.2933535504       -1.1650627673
 C         -5.3023932114       -0.6744866104       -2.2988969675
 C         -3.9528140714       -0.3720545905       -2.3947916381
 C         -3.0941407410       -0.6852938606       -1.3517420885
 H         -2.0401021810       -0.4532416706       -1.3964558489
 H         -3.5560649917        0.1131166894       -3.2720952283
 H         -5.9635126517       -0.4250608804       -3.1138824973
 H         -6.8581495710       -1.5265596603       -1.0934859169
 H         -5.2999394902       -2.0888834103        0.7843916925
 H         -2.2842666392       -0.4218140304        2.9834092212
 H         -4.3672123200        1.3833470296        0.8323345420
 H         -3.6366237804        3.3240555995       -0.5286018384
 H         -1.2470190705        3.8256206593       -0.7800663194
 C          0.8850586599        2.4166202692        0.3173718098
 H          1.3130041103        2.7732522493        1.2663490796
 C          1.2526514395        3.3891617792       -0.7834044204
 C          1.3265908797        4.8592999292       -0.5002703005
 C          2.5833077696        4.0756921591       -0.7274210910
 H          3.1267364892        4.2228179990       -1.6486442712
 H          3.2156960699        3.8598749991        0.1214845388
 H          1.0098286194        5.5489937592       -1.2677932004
 H          1.1093867601        5.1859697492        0.5053512596
 H          0.8951626091        3.0686314692       -1.7556543902
 O          2.9345102605        1.2574051092        1.9439494290
