  62
        -98.94617320
 C         -1.5296699010       -1.4703178478       -0.0445469642
 C         -1.4935932913       -0.1077022121        0.3396117809
 C         -2.7840817047        0.4787948551        0.7295010317
 C         -3.8868916444       -0.2918162553        0.7252637995
 C         -5.2716641700        0.1950828745        1.0381943853
 C         -5.9928331786        0.6689547478       -0.2317157751
 C         -5.1668098938        1.6252399876       -1.0922868734
 H         -4.3026312624        1.0887757328       -1.4906598776
 H         -5.7870518568        1.9123769857       -1.9442679223
 C         -4.6875982360        2.8865494550       -0.3600856151
 H         -5.2767271861        3.0342948748        0.5457535986
 H         -4.8613825934        3.7516174149       -1.0036538386
 C         -3.1999613992        2.8861071845       -0.0028713280
 H         -2.6102097281        2.6457632382       -0.8907028333
 H         -2.9284815751        3.8973067718        0.3113931441
 C         -2.7865789595        1.9292950772        1.1220694199
 H         -1.7532732874        2.1620508878        1.3957788157
 H         -3.4215321962        2.0916513832        1.9952682815
 H         -6.9259063463        1.1535501424        0.0618077234
 H         -6.2410528895       -0.2069288110       -0.8358266641
 H         -5.8357155497       -0.6282955253        1.4795966565
 H         -5.2110857223        1.0082538225        1.7589394631
 O         -3.8732710037       -1.6068691751        0.3845667272
 C         -2.6997045789       -2.2267582890       -0.0162267337
 O         -2.8261042810       -3.4339456959       -0.3070502409
 H          2.3074174735       -1.1122291315       -0.7725532805
 C          2.0570054201       -1.3841850438        0.2380845252
 C          0.8253480510       -1.9428566235        0.5371482947
 C          0.5642557134       -2.3168789286        1.8533442964
 C          1.5035710470       -2.1128050252        2.8447190849
 C          2.7176406281       -1.5167937995        2.5494841149
 C          2.9924117873       -1.1523493020        1.2375280621
 N          4.2157244917       -0.5574836493        0.9033459082
 S          4.3349182432        0.5221599121       -0.3636946258
 O          4.3320759182       -0.1880710179       -1.6191406088
 O          5.5439304523        1.2658150390       -0.0735601545
 C          2.9293737081        1.6156336935       -0.2710704869
 C          2.1532858316        1.8140377104       -1.3933169444
 C          1.0888804121        2.6966847729       -1.3259029308
 C          0.8184505703        3.3610032022       -0.1416290458
 C          1.6078396443        3.1518013225        0.9772485305
 C          2.6757453122        2.2730961969        0.9149745019
 H          3.3080493124        2.0937227479        1.7697407972
 H          1.3884780090        3.6647264268        1.9002770229
 H         -0.0191515324        4.0388654768       -0.0892279359
 H          0.4672420989        2.8542749789       -2.1934898375
 H          2.3926885176        1.2695698311       -2.2937116489
 H          4.7973873991       -0.2943685649        1.6844498578
 H          3.4457057746       -1.3388252893        3.3260227424
 H          1.2853042079       -2.4064615144        3.8605820763
 H         -0.3936797712       -2.7615724672        2.0882993822
 C         -0.2486497695       -2.1444010770       -0.5028636576
 H         -0.4700482016       -3.2188761932       -0.5765817932
 C          0.1387391854       -1.6267005791       -1.8725713726
 C          0.9781460928       -2.4645735478       -2.7880486396
 C         -0.4727205752       -2.2438340083       -3.0925233093
 H         -0.7354749749       -1.6017853383       -3.9199374413
 H         -1.1589377386       -3.0647621318       -2.9424003937
 H          1.2795208973       -3.4396134434       -2.4357825629
 H          1.7193142537       -1.9752633285       -3.4025863489
 H          0.2927773249       -0.5530256769       -1.8801571088
 O         -0.4433604430        0.5816983230        0.3561652963
