  62
        -98.94274609
 C         -1.7866069547       -1.5177633646        0.2415697530
 C         -1.4507127458       -0.1598461378        0.0055146900
 C         -2.4754936577        0.8225097335        0.3925650529
 C         -3.6237699249        0.4170457998        0.9610126129
 C         -4.7525006973        1.3034158578        1.4128740445
 C         -5.7247814770        1.6955842665        0.2917187530
 C         -5.1829331937        2.7106910642       -0.7157479241
 H         -6.0321056697        3.0569015520       -1.3084217240
 H         -4.7860366514        3.5743012300       -0.1813188636
 C         -4.1133708856        2.1535949008       -1.6657191954
 H         -4.1479393540        1.0616571184       -1.6520287020
 H         -4.3366171440        2.4664398559       -2.6883484758
 C         -2.6882570370        2.6091386813       -1.3513267962
 H         -2.0110059627        2.1299129145       -2.0629116168
 H         -2.6125583206        3.6898705560       -1.4895280267
 C         -2.2124233956        2.2611436916        0.0651779730
 H         -2.6950818407        2.9114148630        0.7940590806
 H         -1.1319448506        2.4128272118        0.1121960493
 H         -6.0356084117        0.7898796068       -0.2345210775
 H         -6.6114524967        2.1240060487        0.7648886869
 H         -5.3064981961        0.7411236707        2.1677056578
 H         -4.3491315045        2.2035722920        1.8773756624
 O         -3.8872759229       -0.8926589417        1.2157111491
 C         -2.9867386594       -1.8826054961        0.8598631461
 O         -3.3611979781       -3.0368580238        1.1502237689
 O         -0.3709450194        0.2348102778       -0.5023584622
 C         -0.8452778342       -2.6595328486       -0.1080876152
 C          0.5434978624       -2.3314081037        0.3768064938
 C          0.8341408096       -2.4341350441        1.7331579748
 C          2.0817521884       -2.0843265179        2.2160129495
 C          3.0586497690       -1.6103070040        1.3584047659
 C          2.7710123397       -1.4888625796        0.0053617301
 C          1.5266278883       -1.8653227985       -0.4807246893
 H          1.3102021569       -1.7534431238       -1.5315175278
 N          3.7459754856       -0.9862134456       -0.8763116491
 S          4.5419131604        0.4284137407       -0.4694784896
 O          5.1239287038        0.8951102294       -1.7084156886
 O          5.4710561747        0.1572800299        0.6000972665
 C          3.2940744802        1.5731305656        0.0876029901
 C          3.0907492031        1.7602750336        1.4391849586
 C          2.1081416845        2.6457477144        1.8506895890
 C          1.3530677925        3.3264347438        0.9090184267
 C          1.5683996960        3.1251405939       -0.4454991336
 C          2.5442974481        2.2363814910       -0.8623497633
 H          2.7449061888        2.0601030870       -1.9068173826
 H          0.9756732837        3.6521107860       -1.1762741607
 H          0.5921806922        4.0195040145        1.2335518072
 H          1.9339762555        2.8014985441        2.9034789790
 H          3.7072071803        1.2233287066        2.1411989727
 H          3.4223739480       -0.9309939303       -1.8315262839
 H          4.0347762102       -1.3266578322        1.7170539131
 H          2.2952967772       -2.1760384905        3.2703127701
 H          0.0644494619       -2.7845018990        2.4075088882
 H         -1.2146194060       -3.5220468770        0.4690674046
 C         -0.8802962527       -3.0692674788       -1.5736414875
 C         -2.1833704469       -3.1261771245       -2.3121652400
 C         -1.1556574836       -2.1020645564       -2.6839456712
 H         -0.6225506004       -2.2288837269       -3.6153155834
 H         -1.3382411627       -1.0715626128       -2.4233242012
 H         -2.3596192911       -3.9512355254       -2.9857314962
 H         -3.0669767080       -2.7983294110       -1.7837502553
 H         -0.1710864935       -3.8640402630       -1.7855364538
