  62
        -98.94395381
 C         -2.1630723441       -1.0532915780        0.2429205108
 C         -1.5936741083       -0.2639073812       -0.7876072241
 C         -2.1345319387        1.0955135828       -0.9262369824
 C         -3.0281867687        1.5553520844       -0.0334337269
 C         -3.7109040417        2.8959973749       -0.0635503303
 C         -2.8811086940        4.0418925325        0.5296585664
 C         -1.7227260320        4.5237575201       -0.3438657914
 H         -2.0875753513        4.7250158790       -1.3519222295
 H         -1.3791688922        5.4717724985        0.0749743100
 C         -0.5323750957        3.5574128321       -0.4081889344
 H          0.3988165590        4.1173308397       -0.2874141826
 H         -0.5750890885        2.8505248066        0.4239675752
 C         -0.4141670665        2.7692059673       -1.7116406502
 H         -0.2094578866        3.4542589451       -2.5381977076
 H          0.4392873761        2.0948201933       -1.6107522729
 C         -1.6501937468        1.9350720561       -2.0711386638
 H         -2.4515611439        2.5890399669       -2.4170124775
 H         -1.3760963574        1.2575714332       -2.8840194019
 H         -2.4944733922        3.7283929867        1.5024746415
 H         -3.5589116797        4.8828314812        0.6952913379
 H         -3.9877323544        3.1409996524       -1.0897998184
 H         -4.6237789376        2.7901364342        0.5270405807
 O         -3.4507796943        0.8099063877        1.0235483979
 C         -3.0294158617       -0.4987284350        1.1870328607
 O         -3.4912156568       -1.0594874501        2.2037114225
 H         -0.1018754387       -1.2331062510        2.0649402922
 C          0.4474420784       -1.8284593354        1.3447135134
 C         -0.2550538804       -2.5984085157        0.4254389645
 C          0.4635565811       -3.3488947808       -0.4953952147
 C          1.8472520632       -3.3015023292       -0.5128815112
 C          2.5391032044       -2.4876779965        0.3665533613
 C          1.8272015549       -1.7473608859        1.3001148889
 N          2.5336874556       -0.8274681809        2.1338911270
 S          2.3592687345        0.7409450099        1.5209674226
 O          3.1012503318        1.5981982086        2.4227114218
 O          0.9648277067        1.0899354591        1.3518442711
 C          3.1941756524        0.6231017603       -0.0421652520
 C          2.5017727657        0.1995511599       -1.1594816990
 C          3.1906014565        0.0670670385       -2.3559594036
 C          4.5457949341        0.3523426616       -2.4136571542
 C          5.2256600030        0.7732573313       -1.2802222088
 C          4.5456986714        0.9076416188       -0.0809513452
 H          5.0272486003        1.2328870397        0.8266436374
 H          6.2799636369        0.9936948428       -1.3269575953
 H          5.0744896499        0.2447093758       -3.3477006949
 H          2.6564741490       -0.2647753821       -3.2317701678
 H          1.4479106577       -0.0259768343       -1.0917141907
 H          2.1890356109       -0.8223853145        3.0856300626
 H          3.6135779533       -2.4083765936        0.3359186458
 H          2.3916983504       -3.8834873373       -1.2401607063
 H         -0.0630878506       -3.9433684913       -1.2238578882
 C         -1.7586139611       -2.5037295486        0.4642805249
 H         -2.0859640281       -2.7335598804        1.4920677491
 C         -2.4588512643       -3.4980747252       -0.4487485151
 C         -3.8397405270       -3.2242627963       -0.9639103887
 C         -2.6771370632       -3.2405947580       -1.9080735797
 H         -2.5878782123       -4.0721803247       -2.5916160190
 H         -2.3258621933       -2.3038678565       -2.3094524631
 H         -4.5463720586       -4.0398063270       -0.9978509705
 H         -4.2844190814       -2.2713014230       -0.7143011971
 H         -2.2501421796       -4.5236984514       -0.1599657712
 O         -0.7035002967       -0.6684842758       -1.5779853037
