  62
        -98.94008618
 C          2.6190163126        1.1530355415        0.2778189895
 C          2.5690593520        0.3181756121       -0.8662381306
 C          3.4429808982       -0.8660055802       -0.8331297013
 C          4.2121837253       -1.0947843482        0.2457451172
 C          5.1018438951       -2.2892620233        0.4299981295
 C          4.3582420473       -3.4300550118        1.1389422481
 C          2.9903064259       -3.7464631157        0.5336881965
 H          2.5724454939       -4.5844935454        1.0960311368
 H          2.3251530134       -2.8933777062        0.6888335343
 C          3.0221992900       -4.0975876286       -0.9604600243
 H          2.3898093873       -4.9720409918       -1.1273090974
 H          4.0363457278       -4.3705800550       -1.2543139603
 C          2.5071673049       -2.9919430074       -1.8840891493
 H          1.5291896787       -2.6482244905       -1.5369676290
 H          2.3685318434       -3.4194535002       -2.8805271480
 C          3.4207510073       -1.7689505045       -2.0342689040
 H          4.4308587730       -2.0924999577       -2.2931063378
 H          3.0303815696       -1.1634133636       -2.8573362080
 H          4.9860456049       -4.3223992355        1.1096799650
 H          4.2132533259       -3.1512081251        2.1854514834
 H          5.4593557421       -2.6229532151       -0.5420963357
 H          5.9567941208       -1.9911956028        1.0392826840
 O          4.2224475305       -0.2791051683        1.3318370190
 C          3.4126305891        0.8440666295        1.3847525934
 O          3.4818886206        1.4734503321        2.4601986200
 O          1.8384106255        0.5352438617       -1.8656650167
 C          1.7428083738        2.3883383863        0.3967866141
 C          0.3351696454        2.0636445738       -0.0431064996
 C         -0.3548610198        2.7702510688       -1.0182015867
 C         -1.6491709708        2.4141467011       -1.3562459344
 C         -2.2803421461        1.3514807469       -0.7375758420
 C         -1.6014800122        0.6397305959        0.2432358183
 C         -0.3109729745        1.0072867340        0.5889507229
 H          0.2177765411        0.4529822529        1.3566271151
 N         -2.2270724080       -0.4563605208        0.8647138351
 S         -3.7593937344       -0.2296948763        1.5125645736
 O         -3.9527386674        1.1344297016        1.9479090685
 O         -3.8944187736       -1.2521670750        2.5275048420
 C         -4.8588912082       -0.6034171957        0.1634617382
 C         -4.7219020869       -1.8233075731       -0.4694277917
 C         -5.5769503641       -2.1339229190       -1.5146488455
 C         -6.5509428099       -1.2264784935       -1.9043134243
 C         -6.6778125298       -0.0074503888       -1.2561433917
 C         -5.8247824904        0.3101680142       -0.2105278484
 H         -5.8811772976        1.2481097289        0.3185107798
 H         -7.4354753661        0.6964958943       -1.5608279553
 H         -7.2148730610       -1.4712456541       -2.7182906642
 H         -5.4805707719       -3.0804686621       -2.0217394431
 H         -3.9537290439       -2.5005768256       -0.1349623191
 H         -1.6346058155       -0.9429879496        1.5217008055
 H         -3.2841686245        1.0660896511       -1.0066636640
 H         -2.1712471019        2.9683992956       -2.1212461008
 H          0.1266725025        3.5865242541       -1.5305458463
 H          1.7081018602        2.6074474225        1.4777277122
 C          2.3157778592        3.6283853161       -0.2734913896
 C          3.7930198498        3.7876403029       -0.4719903447
 C          2.8944004866        3.5975539239       -1.6549571284
 H          2.7177543514        4.4438234045       -2.3026997890
 H          2.9082270745        2.6492303125       -2.1675902758
 H          4.2292462876        4.7610489700       -0.3044557096
 H          4.4304852805        2.9678313344       -0.1733756357
 H          1.7737009540        4.5257481207        0.0091344494
