  62
        -98.94387200
 C         -1.8825703317       -0.5977915576        0.8069208221
 C         -2.2343491623        0.4908104858       -0.0267223693
 C         -3.6728746865        0.7820766439       -0.1227032525
 C         -4.5462539831        0.0365962080        0.5789098415
 C         -6.0382827759        0.1926339775        0.5338854887
 C         -6.6584365736       -0.7025288995       -0.5479653396
 C         -5.9744875144       -0.5882506414       -1.9102646474
 H         -4.9565220353       -0.9768419887       -1.8323118033
 H         -6.5148038284       -1.2387298895       -2.6013997289
 C         -5.9287487569        0.8366032927       -2.4795674880
 H         -6.2090508124        0.8019036651       -3.5344584460
 H         -6.6617516053        1.4633077919       -1.9703568230
 C         -4.5543744715        1.5048376795       -2.4065608245
 H         -4.5809311694        2.4066761090       -3.0242543907
 H         -3.7993203207        0.8397684368       -2.8336217332
 C         -4.0889297245        1.9242338984       -1.0063374263
 H         -3.1980496694        2.5484378767       -1.1255423489
 H         -4.8651052530        2.5227055839       -0.5246599180
 H         -7.7143051137       -0.4440546009       -0.6461220476
 H         -6.5917010549       -1.7416148881       -0.2176775397
 H         -6.2833520749        1.2354394935        0.3421747560
 H         -6.4431937222       -0.0940372297        1.5058814249
 O         -4.1668789181       -0.9869520776        1.3858545378
 C         -2.8320947928       -1.3347732078        1.5143652148
 O         -2.6211735479       -2.2955543759        2.2817296637
 O         -1.3940631079        1.1862420180       -0.6558080641
 C         -0.4257040152       -0.9965913481        0.9571984982
 C          0.3990557057        0.1806450249        1.4164584661
 C         -0.0653236833        0.9573530003        2.4749790344
 C          0.6568769971        2.0461967814        2.9216840934
 C          1.8602040641        2.3813484260        2.3265249489
 C          2.3432653484        1.6020670791        1.2822154535
 C          1.6192062363        0.5018981702        0.8417225152
 H          2.0051093308       -0.0810423150        0.0226216138
 N          3.5854904786        1.8909527778        0.7069601795
 S          4.0066842672        1.4428240852       -0.8425411325
 O          5.1993543650        2.2179107339       -1.1157553745
 O          2.9254544749        1.6008334910       -1.7857630169
 C          4.4614161894       -0.2737424705       -0.7027966397
 C          5.1025691247       -0.7137262333        0.4382243723
 C          5.4925480040       -2.0411799143        0.5167838589
 C          5.2461134395       -2.9002985756       -0.5431192618
 C          4.6071745259       -2.4418958310       -1.6846537253
 C          4.2093928086       -1.1164317195       -1.7671339980
 H          3.6981681074       -0.7208402675       -2.6308474739
 H          4.4166760795       -3.1105034999       -2.5093195071
 H          5.5515482501       -3.9327291592       -0.4799694930
 H          5.9882335954       -2.4013697204        1.4038514434
 H          5.2798488817       -0.0209728278        1.2436085678
 H          4.0090881866        2.7615273337        0.9895072665
 H          2.4207957965        3.2386379962        2.6665654427
 H          0.2777413158        2.6449737300        3.7362933816
 H         -1.0104107957        0.7011270084        2.9348470040
 H         -0.4015712724       -1.7602875545        1.7488387967
 C          0.0769788578       -1.6173706384       -0.3300812555
 C          1.1281058405       -2.6845865734       -0.2921420773
 C         -0.2870277752       -3.0382953940       -0.6353518869
 H         -0.5221545578       -3.3026220112       -1.6554805095
 H         -0.8788975787       -3.5643383650        0.0997447583
 H          1.8685994682       -2.7068289389       -1.0772187111
 H          1.5036650012       -2.9806766618        0.6755055432
 H          0.0886302705       -0.9132198495       -1.1553873478
