  62
        -98.93298014
 C         -1.8653246340        0.9300436822        0.4841219046
 C         -2.6107407669        0.8486999947       -0.7199541873
 C         -3.6894306642       -0.1499866805       -0.7818206863
 C         -3.8962674457       -0.9419731312        0.2839717006
 C         -4.9577302975       -1.9936917340        0.4554286593
 C         -6.2020238394       -1.4051609121        1.1419630035
 C         -7.2213150021       -0.7714242181        0.1959631272
 H         -7.7175212339       -1.5587462155       -0.3753277953
 H         -7.9804984707       -0.2872452334        0.8144929428
 C         -6.6532614031        0.2596245103       -0.7827241464
 H         -7.4778564741        0.8899327586       -1.1211408944
 H         -5.9433793108        0.9063865953       -0.2639655842
 C         -5.9793969891       -0.3772409599       -2.0072243555
 H         -6.2321740671       -1.4367320398       -2.0428957535
 H         -6.3861140014        0.0689013591       -2.9171441502
 C         -4.4549551958       -0.2078828177       -2.0754959757
 H         -4.2140933410        0.7332027386       -2.5800543572
 H         -4.0333912695       -1.0079659635       -2.6935589654
 H         -6.7043673643       -2.2001217647        1.6969606814
 H         -5.8624813909       -0.6635035203        1.8696250524
 H         -5.2108050732       -2.4451135476       -0.4993932190
 H         -4.5314430495       -2.7610408147        1.1052994275
 O         -3.1570914663       -0.8384549629        1.4203336806
 C         -2.1285107186        0.0882585861        1.5643743295
 O         -1.5818130098        0.0425818241        2.6802336542
 O         -2.3837629068        1.6010376702       -1.7060346202
 C         -0.7437334986        1.9555970024        0.4732255147
 C          0.3465272637        1.4951018245       -0.4631404637
 C          0.9133571640        2.3743896012       -1.3791719058
 C          1.9016209651        1.9505784507       -2.2487835471
 C          2.3591946255        0.6460717143       -2.2033545390
 C          1.8025286254       -0.2398567888       -1.2888450417
 C          0.7955854820        0.1821596888       -0.4328198866
 H          0.3625661470       -0.5241555484        0.2612516169
 N          2.2591536787       -1.5743805679       -1.1977442122
 S          3.1321848281       -1.9465672078        0.1840372520
 O          3.5646959644       -3.3155093412        0.0131116967
 O          2.3402077047       -1.6521627779        1.3485030172
 C          4.5438478884       -0.8567343446        0.1012744749
 C          4.4063865909        0.4483503345        0.5309300773
 C          5.4790122921        1.3150232709        0.3908718958
 C          6.6620376372        0.8654299864       -0.1754829297
 C          6.7844819590       -0.4485299626       -0.6016765972
 C          5.7144769577       -1.3188028410       -0.4682936143
 H          5.7645846265       -2.3493151845       -0.7811746531
 H          7.7065520581       -0.7963604724       -1.0387718375
 H          7.4936969400        1.5435903551       -0.2832073686
 H          5.3833768966        2.3359620435        0.7235410959
 H          3.4742472461        0.7614836375        0.9727499342
 H          2.7857267853       -1.8734196174       -2.0078269060
 H          3.1331662850        0.3091685085       -2.8766748345
 H          2.3223726672        2.6409926200       -2.9632462145
 H          0.5549061037        3.3921520079       -1.4204296381
 H         -1.1798782527        2.8662940114        0.0287494893
 C         -0.2052544217        2.3421202832        1.8402105753
 C          0.9523283073        1.6531784141        2.4906792633
 C          1.1145704515        3.0462089220        1.9651117620
 H          1.1998591228        3.8545139100        2.6753427901
 H          1.6970751275        3.1806160349        1.0659117101
 H          0.8995710228        1.4977072755        3.5575416675
 H          1.4151261406        0.8268881341        1.9725620977
 H         -0.9982452158        2.6656643148        2.5061003915
