  62
        -98.94148501
 C         -2.3740033606       -1.2285807005        0.1662735285
 C         -3.3144849906       -0.5766044810        1.0037655788
 C         -4.1314604105        0.4701215795        0.3761976594
 C         -3.9263281203        0.7736958703       -0.9182060104
 C         -4.6515455002        1.8500033108       -1.6719251297
 C         -3.9029443900        3.1876400007       -1.5906119688
 C         -3.4943759301        3.5814980898       -0.1710285385
 H         -2.7499121802        2.8699181895        0.1949167611
 H         -3.0013163100        4.5542607498       -0.2327381679
 C         -4.6583094102        3.6586339293        0.8272341514
 H         -4.5515815301        4.5706990989        1.4181568420
 H         -5.6033724001        3.7306017697        0.2879491814
 C         -4.7260754504        2.4926375286        1.8153230507
 H         -5.4382554004        2.7551320382        2.6019964708
 H         -3.7506519904        2.3577192482        2.2898913407
 C         -5.1680355405        1.1456033991        1.2296252698
 H         -6.0992207704        1.2741100095        0.6742075298
 H         -5.3565196006        0.4665176185        2.0663024993
 H         -4.5385580999        3.9657838910       -2.0170113184
 H         -2.9979094600        3.1165683410       -2.1989657988
 H         -4.7236518001        1.5479831315       -2.7181029799
 H         -5.6549146202        1.9578713407       -1.2643234397
 O         -2.9876822903        0.1584047007       -1.6801740707
 C         -2.1784224105       -0.8473239497       -1.1623947912
 O         -1.3528294404       -1.2963405193       -1.9779647415
 O         -3.4603706907       -0.8549984017        2.2242737787
 C         -1.5165099007       -2.3167408210        0.7881943079
 C         -0.0644615707       -2.0931203909        0.4467169781
 C          0.7290480093       -3.0231667506       -0.2104572424
 C          2.0510799393       -2.7334795405       -0.5007176821
 C          2.6109755994       -1.5220066208       -0.1403854213
 C          1.8247213094       -0.5812295812        0.5122436893
 C          0.5031868894       -0.8766025512        0.8067764490
 H         -0.1111983306       -0.1398319015        1.3114577794
 N          2.3836397495        0.6499973886        0.8969482201
 S          3.2962441597        1.5075562892       -0.2214177293
 O          3.2323795098        2.8827545189        0.2258234816
 O          2.8681795898        1.2541255001       -1.5773362195
 C          4.9495275296        0.8947082789        0.0284080404
 C          5.4609570795        0.9035882480        1.3114464405
 C          6.7484087295        0.4363740777        1.5214696303
 C          7.4998473395       -0.0253736617        0.4509635401
 C          6.9735985296       -0.0235831308       -0.8316797700
 C          5.6855058797        0.4411065595       -1.0485231998
 H          5.2314575897        0.4542524101       -2.0267600398
 H          7.5589096696       -0.3826283103       -1.6628966302
 H          8.5014924594       -0.3891010419        0.6172484699
 H          7.1608111094        0.4330668271        2.5175528303
 H          4.8452900095        1.2726650575        2.1144976907
 H          1.7314479395        1.2626753083        1.3649084504
 H          3.6377291994       -1.2917431608       -0.3731237111
 H          2.6545610493       -3.4626713503       -1.0194829225
 H          0.3063803192       -3.9644026904       -0.5203918730
 H         -1.6326643708       -2.1633517417        1.8746986280
 C         -1.9961329809       -3.7319872508        0.5032655670
 C         -3.4386268409       -4.0148298005        0.2109106067
 C         -2.4096269408       -4.1825619899       -0.8645404334
 H         -2.1516549009       -5.1853316697       -1.1726805940
 H         -2.3718501107       -3.4578584694       -1.6624396229
 H         -3.8852627910       -4.8987039707        0.6409603561
 H         -4.1120035008       -3.1722253204        0.1471728171
 H         -1.4822218810       -4.4626658412        1.1202879665
