  62
        -98.94311436
 C         -1.4735082598       -1.1031126824       -0.0263362328
 C         -2.5066750158       -0.6410533918        0.8185623995
 C         -3.0139729774        0.7142770419        0.5511647033
 C         -2.4681313253        1.4380006155       -0.4415969248
 C         -2.7803540860        2.8553034131       -0.8536041705
 C         -4.2537865013        3.2818360454       -0.8861287296
 C         -5.2380693731        2.1772644130       -1.2980235129
 H         -5.8772243148        2.5523932972       -2.0993257938
 H         -4.6911123610        1.3184565748       -1.6905408126
 C         -6.1416236555        1.7241059068       -0.1490341642
 H         -7.0252134061        1.2367835484       -0.5679260413
 H         -6.4824059737        2.6061292252        0.3974024684
 C         -5.5067697893        0.7417165801        0.8342301986
 H         -6.2086686881        0.5880631832        1.6573867911
 H         -5.3638740178       -0.2277524339        0.3494252261
 C         -4.1512935590        1.1725524007        1.4186928923
 H         -4.1174005596        2.2455509769        1.5926230579
 H         -4.0206155080        0.6630573990        2.3776566280
 H         -4.3240047251        4.1140687852       -1.5886864730
 H         -4.5421222345        3.6709014574        0.0893483664
 H         -2.2229008998        3.5241147646       -0.1903469301
 H         -2.3464692264        2.9621108485       -1.8510057799
 O         -1.4703300681        0.9533994482       -1.2320307396
 C         -0.9386508269       -0.3077577486       -1.0371329496
 O         -0.0166365690       -0.6058603340       -1.8219972619
 H          0.4097993298       -0.5768134739        1.5863852136
 C          1.0978219874       -1.2989128113        1.1709301649
 C          0.6151794819       -2.3650836229        0.4225231038
 C          1.5280261402       -3.2804424422       -0.0872352482
 C          2.8857518258       -3.1129488001        0.1253207759
 C          3.3631945451       -2.0214473355        0.8273549449
 C          2.4571141173       -1.1062720156        1.3497128015
 N          2.8860844357        0.0421948175        2.0509138134
 S          2.5681767512        1.5159703652        1.3137188123
 O          3.1726264168        2.5064527986        2.1798753100
 O          1.1547940934        1.6545867802        1.0765193551
 C          3.4824455520        1.4365753919       -0.2163895156
 C          4.7504590446        1.9860463258       -0.2502319289
 C          5.5059730711        1.8634475758       -1.4044899575
 C          4.9870109778        1.1853428097       -2.4975488705
 C          3.7154187073        0.6364553413       -2.4449814663
 C          2.9499656055        0.7587012050       -1.2945091535
 H          1.9553733897        0.3428555247       -1.2390439131
 H          3.3033574732        0.1081042208       -3.2897685536
 H          5.5750163655        1.0846832808       -3.3961708620
 H          6.4940880374        2.2925197776       -1.4473641384
 H          5.1089395151        2.5064414320        0.6233580040
 H          3.8633338108        0.0138308372        2.3106321733
 H          4.4232665712       -1.8745221740        0.9698896120
 H          3.5818913761       -3.8320121608       -0.2783944431
 H          1.1756713566       -4.1239239699       -0.6582000880
 C         -0.8746631455       -2.4766855104        0.2101131651
 H         -1.3328252709       -2.8416454711        1.1420741556
 C         -1.2495555152       -3.4163817489       -0.9182761079
 C         -1.4412093699       -4.8802087250       -0.6586065124
 C         -2.6264658095       -4.0071999260       -0.9372378792
 H         -3.1328055408       -4.1065519030       -1.8856604216
 H         -3.2825163449       -3.7544242372       -0.1169541348
 H         -1.3002727541       -5.2319012878        0.3522204284
 H         -1.1361477400       -5.5830788204       -1.4191622226
 H         -0.8216441724       -3.1136293601       -1.8676727017
 O         -2.9761030200       -1.3266218047        1.7683977883
