  62
        -98.93823876
 C          2.4901244109        0.7074649346        0.0189733452
 C          2.8891248758       -0.4501346097        0.7358632847
 C          4.0251353541       -1.2016068396        0.1892254288
 C          4.6029841875       -0.7762793498       -0.9487896336
 C          5.7998599681       -1.4115573246       -1.5938749275
 C          7.1044776200       -0.7793308420       -1.0892569913
 C          7.1922976119       -0.6772124400        0.4334916459
 H          8.1661624276       -0.2458875458        0.6750692979
 H          6.4336162797        0.0243350858        0.7880438157
 C          7.0282160393       -2.0140495763        1.1700081986
 H          7.1913611732       -2.8408625181        0.4778661934
 H          7.7949630732       -2.0836744726        1.9445248840
 C          5.6765849879       -2.1937301715        1.8637773301
 H          5.4660596052       -1.3213230879        2.4876808935
 H          5.7474674369       -3.0600604077        2.5269278595
 C          4.4758212467       -2.4245387799        0.9374864710
 H          4.6968199813       -3.2394914812        0.2451682735
 H          3.6277436887       -2.7230254921        1.5606607870
 H          7.9422392294       -1.3695457773       -1.4651074315
 H          7.1845769674        0.2277730048       -1.5049365948
 H          5.7954193158       -2.4790849121       -1.3824000861
 H          5.7282408001       -1.2632071618       -2.6726038257
 O          4.1817947477        0.3220621464       -1.6219434614
 C          3.1204332988        1.0961962922       -1.1641904070
 O          2.8631112575        2.0680975852       -1.8961161176
 O          2.3197882734       -0.8313850419        1.7945914490
 C          1.3294546108        1.4934803234        0.6021320727
 C          0.0161095769        1.0117977411        0.0404197056
 C         -0.1997496314        0.9336745420       -1.3319837965
 C         -1.4167009239        0.4990867682       -1.8245854162
 C         -2.4369291572        0.1281666941       -0.9656837667
 C         -2.2311588456        0.1976902467        0.4052414113
 C         -1.0093500546        0.6406337623        0.8973279069
 H         -0.8484494869        0.6823982020        1.9663740945
 N         -3.2541297155       -0.1965259587        1.2815453038
 S         -4.8070666975        0.3897896962        1.0349300238
 O         -4.7839428645        1.6855988138        0.3977989214
 O         -5.4435737925        0.3205086343        2.3318212286
 C         -5.5549968857       -0.8120271482       -0.0445956250
 C         -5.5678346724       -2.1327208606        0.3593021963
 C         -6.1529014419       -3.0789919487       -0.4666557164
 C         -6.7151412606       -2.6906061820       -1.6737150963
 C         -6.6981927292       -1.3600162485       -2.0627762358
 C         -6.1131490425       -0.4085381971       -1.2416908175
 H         -6.0724796826        0.6363390247       -1.5058109964
 H         -7.1362592457       -1.0599901996       -3.0011746092
 H         -7.1692965733       -3.4295051229       -2.3149154879
 H         -6.1683064470       -4.1147223248       -0.1676489873
 H         -5.1243112942       -2.3934311746        1.3057755438
 H         -2.9991888777       -0.1566560873        2.2576208489
 H         -3.3850552318       -0.2125721954       -1.3480575465
 H         -1.5726650318        0.4462264526       -2.8914876812
 H          0.5943791075        1.2220808409       -2.0041984997
 H          1.3369628099        1.2412906279        1.6748606091
 C          1.5041197140        3.0020170135        0.4968946060
 C          0.6808038810        3.8803946155       -0.3912635310
 C          0.4749075526        3.9179854787        1.0914812750
 H          0.8067074580        4.7846765548        1.6428496453
 H         -0.4281386031        3.4679026439        1.4775677822
 H          1.1783299254        4.7090256552       -0.8713277906
 H         -0.0851434422        3.4248304802       -0.9985179534
 H          2.5415783187        3.2950300824        0.6234108801
