  62
        -98.94446974
 C         -1.7630675212       -0.7361027442        0.0309553397
 C         -2.9455351742       -1.2280830032        0.6342598433
 C         -4.1969852757       -0.9184814350       -0.0654153690
 C         -4.1624927092       -0.2262608262       -1.2187213373
 C         -5.3523501121        0.1504442929       -2.0593999414
 C         -6.0591084437        1.4329488021       -1.5993557371
 C         -6.8697443245        1.3019435414       -0.3092530352
 H         -7.4808522930        2.2025498623       -0.2224272379
 H         -7.5500605079        0.4539884623       -0.3938421167
 C         -6.0196952661        1.1581300351        0.9608975027
 H         -6.4066050479        1.8242788937        1.7353904011
 H         -4.9951834875        1.4742819865        0.7503228050
 C         -5.9923885404       -0.2529007055        1.5486707204
 H         -5.3351897615       -0.2477818770        2.4219943545
 H         -6.9944701649       -0.5295553954        1.8835657737
 C         -5.4854010875       -1.3302723154        0.5808209662
 H         -5.2943273927       -2.2419231273        1.1520530301
 H         -6.2405963791       -1.5424516321       -0.1754589338
 H         -6.7373314316        1.7364615360       -2.4002490989
 H         -5.3107907209        2.2204064400       -1.4821067028
 H         -4.9783644692        0.3086123186       -3.0732383080
 H         -6.0658725130       -0.6737899607       -2.0764808376
 O         -3.0021903934        0.2089922588       -1.7790852074
 C         -1.7785834800       -0.0117039909       -1.1606270758
 O         -0.8039702741        0.4722939516       -1.7670495878
 H          2.1476821205       -0.1285478215        0.2156512958
 C          1.5532418355        0.5920096672        0.7510543761
 C          0.2328764640        0.3138614936        1.0676962970
 C         -0.5015530939        1.2713846593        1.7640203739
 C          0.0652978815        2.4803228563        2.1145232308
 C          1.3784536126        2.7613449735        1.7790713550
 C          2.1249440483        1.8103668646        1.0952498113
 N          3.4729064343        2.0479912741        0.7919427992
 S          4.1404200872        1.5343072435       -0.6545144582
 O          5.3540985721        2.3163042826       -0.7750371850
 O          3.2118722063        1.6363512070       -1.7545167108
 C          4.5902858516       -0.1639304761       -0.3675154627
 C          4.3230804368       -1.1051653023       -1.3414910948
 C          4.7218439707       -2.4167218606       -1.1338124846
 C          5.3768588526       -2.7614044454        0.0388311429
 C          5.6360036719       -1.8036847775        1.0076725630
 C          5.2447069873       -0.4901701436        0.8040726954
 H          5.4327920493        0.2817363179        1.5311412976
 H          6.1428352068       -2.0770666707        1.9189675261
 H          5.6833246166       -3.7832216067        0.1980679652
 H          4.5190046070       -3.1620219311       -1.8868259151
 H          3.7984407989       -0.7948032143       -2.2317372686
 H          3.8090675971        2.9656627473        1.0459469215
 H          1.8215421504        3.7091125925        2.0449495246
 H         -0.5192292199        3.2142473154        2.6488908483
 H         -1.5289158332        1.0532779232        2.0227521021
 C         -0.4329165799       -0.9930313953        0.7151799325
 H         -0.6886419988       -1.5071798559        1.6542132630
 C          0.4336595516       -1.9129020811       -0.1177670235
 C          1.4238437143       -2.8160473305        0.5533301799
 C          0.1828607933       -3.3890678284       -0.0604167009
 H          0.2718406884       -3.9615867898       -0.9713348855
 H         -0.6043081706       -3.7317708950        0.5951871176
 H          2.3702208721       -2.9965698303        0.0668519224
 H          1.4822665593       -2.7748515048        1.6303137207
 H          0.6933882015       -1.4850956717       -1.0802988990
 O         -2.9537126354       -1.8901614433        1.7063393497
