  62
        -98.95138362
 C         -1.8138998508       -1.2679143615       -0.2865344830
 C         -2.9106826601       -0.5960141654        0.3001784245
 C         -3.2401091804        0.7113587702       -0.2758008116
 C         -2.5220256120        1.1855456220       -1.3103905377
 C         -2.7221332367        2.5117139166       -1.9912506172
 C         -2.0169001982        3.6705005007       -1.2725720421
 C         -2.6905893564        4.1353546520        0.0192986244
 H         -2.2419100674        5.0941637445        0.2869520597
 H         -3.7520951110        4.3094101744       -0.1632752959
 C         -2.5173178916        3.1691976669        1.1996023912
 H         -1.6835084876        2.4928629484        0.9929341148
 H         -2.2449578463        3.7347492217        2.0945800588
 C         -3.7647823234        2.3536085067        1.5427526134
 H         -3.5116568844        1.6726231571        2.3597025923
 H         -4.5528792092        3.0235841163        1.8951928849
 C         -4.3194659897        1.5165433457        0.3827805576
 H         -4.8115982002        2.1617867091       -0.3445306260
 H         -5.0559217268        0.8175990684        0.7877884589
 H         -0.9894477490        3.3691741613       -1.0510404842
 H         -1.9795638312        4.5147129290       -1.9654491975
 H         -3.7870799657        2.7278355237       -2.0821723972
 H         -2.2973560826        2.4164834177       -2.9928247942
 O         -1.5079001194        0.4856955891       -1.8802299815
 C         -1.0947967409       -0.7243383697       -1.3502674056
 O         -0.1013881012       -1.2221176435       -1.9168807692
 O         -3.5738264937       -1.0626639611        1.2671558411
 C         -1.3265467454       -2.5690090743        0.3236388549
 C          0.1103971087       -2.4122478078        0.7595474547
 C          1.0668376648       -3.4105135811        0.6209788189
 C          2.3776420079       -3.1871810925        1.0074648294
 C          2.7692651412       -1.9600447340        1.5109443185
 C          1.8170492250       -0.9594558329        1.6630966179
 C          0.4978759170       -1.2028969489        1.3226135473
 H         -0.2269204845       -0.4128150384        1.4550583061
 N          2.1561461991        0.3309952853        2.1275791647
 S          2.0203948936        1.5565835090        0.9857483247
 O          2.4904733031        2.7508793575        1.6555172665
 O          0.6789954144        1.6028661576        0.4680115034
 C          3.1932070257        1.0861063212       -0.2733233843
 C          2.8346629502        0.1558748607       -1.2279950252
 C          3.7946251990       -0.2657534268       -2.1365576797
 C          5.0832137994        0.2408157338       -2.0743219470
 C          5.4254382588        1.1760691397       -1.1087470235
 C          4.4745892542        1.5988667667       -0.1949061544
 H          4.6921132374        2.3248991031        0.5720369074
 H          6.4272796939        1.5717242828       -1.0629210362
 H          5.8234602290       -0.0944396686       -2.7836288586
 H          3.5198645253       -0.9923177027       -2.8843466829
 H          1.8247921520       -0.2239234458       -1.2657213884
 H          3.0753065438        0.3808738446        2.5469483688
 H          3.7982082172       -1.7738458506        1.7800177483
 H          3.1088266002       -3.9725363472        0.8924719042
 H          0.7868207780       -4.3629926003        0.2012516178
 H         -1.9489027143       -2.7270812058        1.2176104868
 C         -1.5401108154       -3.7259057440       -0.6305179975
 C         -1.8298069962       -5.0999385707       -0.1060976619
 C         -2.9153226071       -4.3053753168       -0.7656695181
 H         -3.2550542408       -4.6042654396       -1.7458722773
 H         -3.6919527787       -3.8821219964       -0.1453859161
 H         -1.4264595655       -5.9497482936       -0.6358410149
 H         -1.8777935510       -5.2273698132        0.9648436877
 H         -0.9449581700       -3.6337061337       -1.5321226074
