  62
        -98.93650421
 C          2.3915957988       -0.4172331520        0.3783013972
 C          3.6689658030       -0.9857830880        0.6208563549
 C          4.7537183421       -0.5435416201       -0.2616484386
 C          4.4853642530        0.3005616372       -1.2737106837
 C          5.4768033238        0.8247493218       -2.2767241239
 C          6.2673190018        2.0472592662       -1.7903153960
 C          7.3258854161        1.7562893539       -0.7256500985
 H          7.9706550842        0.9462415122       -1.0679048394
 H          7.9456351151        2.6508230620       -0.6375042031
 C          6.7557862825        1.4133257995        0.6578463347
 H          5.7111882988        1.7293922085        0.7093462633
 H          7.2967945832        1.9731618622        1.4240584160
 C          6.8445021269       -0.0666376121        1.0311089898
 H          6.3813542645       -0.2015580597        2.0121228991
 H          7.8928889337       -0.3621374869        1.1114546451
 C          6.1452066026       -1.0097013320        0.0431305095
 H          6.7281018063       -1.0940942975       -0.8737846381
 H          6.0714762350       -1.9977469250        0.5041465618
 H          5.5623468994        2.7902062996       -1.4100599906
 H          6.7672861121        2.4788691147       -2.6604495654
 H          4.9021247127        1.1142248438       -3.1591747916
 H          6.1687463435        0.0303686394       -2.5580058058
 O          3.2348470374        0.7709282533       -1.5171058835
 C          2.1612944513        0.4475027515       -0.6933870896
 O          1.0937055285        0.9885675694       -1.0334629988
 O          3.8910955415       -1.8272812269        1.5318486581
 C          1.2570536189       -0.8412124798        1.2945228128
 C          0.0605884312       -1.2616568504        0.4802040939
 C          0.1215968226       -2.4556080956       -0.2326851013
 C         -0.9446669269       -2.8721629109       -1.0064824585
 C         -2.0929400441       -2.1047830607       -1.0911974715
 C         -2.1626805610       -0.9102995740       -0.3876183562
 C         -1.0952821213       -0.5018278319        0.4027156613
 H         -1.1535302600        0.4373777132        0.9309744894
 N         -3.3139507037       -0.1061178338       -0.4932580910
 S         -4.8092131517       -0.8658961841       -0.3023503103
 O         -4.8068735112       -1.6753884469        0.8971184899
 O         -5.1355292087       -1.5577589170       -1.5239111695
 C         -5.8822283272        0.5423017926       -0.1014546091
 C         -6.2769350096        1.2380276938       -1.2284057196
 C         -7.0906900562        2.3494370938       -1.0778180767
 C         -7.4931910929        2.7447498605        0.1894173676
 C         -7.0899336103        2.0355379085        1.3107117721
 C         -6.2747264614        0.9236799256        1.1673820920
 H         -5.9438319541        0.3375171818        2.0097532527
 H         -7.4070413895        2.3436452143        2.2940106094
 H         -8.1276989426        3.6094533770        0.3036334921
 H         -7.4082497083        2.9022738112       -1.9471876131
 H         -5.9467109465        0.8893735527       -2.1929079898
 H         -3.2518013717        0.7137909719        0.0951976025
 H         -2.9329498995       -2.4166437988       -1.6905441265
 H         -0.8827887030       -3.8016745662       -1.5528354520
 H          1.0219633776       -3.0526208713       -0.1760077885
 H          1.6461166792       -1.7368930633        1.8068413928
 C          0.9201125359        0.1633989655        2.3862375973
 C          1.9971081564        0.9958498833        3.0136421765
 C          0.9448953545        1.6456301179        2.1685581907
 H          0.1941597121        2.2458860998        2.6621946578
 H          1.2168127366        2.0066139064        1.1892511225
 H          1.9722789135        1.1518530243        4.0815884022
 H          2.9943632593        0.9050165970        2.6082419335
 H          0.1532628246       -0.2164380511        3.0553266011
