  62
        -98.94417002
 C         -2.6144339726       -1.1117127054        0.2079033064
 C         -2.7430736556       -0.3230755632       -0.9611495010
 C         -3.5898060547        0.8723111304       -0.8346585329
 C         -4.1825387404        1.1402495791        0.3432485189
 C         -5.0225510226        2.3518230310        0.6247778108
 C         -4.1688053334        3.5030796158        1.1749522261
 C         -2.9093579011        3.7838994766        0.3549857317
 H         -2.2368057249        2.9258203565        0.4293705240
 H         -2.4003002005        4.6309777453        0.8202070198
 C         -3.1717047793        4.0932435457       -1.1256432661
 H         -2.5674951891        4.9555935033       -1.4148062908
 H         -4.2175135429        4.3686613687       -1.2658587756
 C         -2.8141014522        2.9559816792       -2.0845356969
 H         -1.7957286659        2.6127254127       -1.8842177565
 H         -2.8309939347        3.3527913867       -3.1029385274
 C         -3.7467736848        1.7385485351       -2.0526567485
 H         -3.4912958258        1.1030500421       -2.9054996806
 H         -4.7827492532        2.0646450762       -2.1637999728
 H         -3.8650973615        3.2529089661        2.1943733316
 H         -4.7860504560        4.4022447730        1.2161580179
 H         -5.7760904737        2.0833123646        1.3670420599
 H         -5.5223368917        2.6614741947       -0.2908428998
 O         -4.0382026818        0.3552807234        1.4426107303
 C         -3.2419000600       -0.7784301234        1.4069901471
 O         -3.1699066507       -1.3921229689        2.4923057840
 O         -2.1795102330       -0.5992820546       -2.0511902576
 C         -1.7520027093       -2.3595970370        0.1819105195
 C         -0.3335675186       -2.0166061486       -0.2073214044
 C          0.4268048377       -2.7980212867       -1.0674190522
 C          1.7315646147       -2.4456590531       -1.3672023658
 C          2.3060820209       -1.3137793316       -0.8197296379
 C          1.5596254228       -0.5314331500        0.0518300492
 C          0.2561674524       -0.8914212674        0.3558620777
 H         -0.3215231759       -0.2824002183        1.0421461497
 N          2.1355271452        0.6261156662        0.6095461948
 S          3.5806761794        0.4398310493        1.4489373567
 O          3.6832027663       -0.8773120660        2.0341828268
 O          3.6315032481        1.5570171642        2.3669055486
 C          4.8346261427        0.6538906869        0.2036864041
 C          5.7789306660       -0.3336680762        0.0023873332
 C          6.7539143541       -0.1408706665       -0.9640919827
 C          6.7669572640        1.0294126827       -1.7074423290
 C          5.8122975306        2.0122628044       -1.4914115978
 C          4.8359563421        1.8267766651       -0.5257245229
 H          4.0790192764        2.5663437940       -0.3241443320
 H          5.8254256864        2.9208328440       -2.0716213070
 H          7.5257473179        1.1768337908       -2.4596367803
 H          7.4970611185       -0.9034128702       -1.1332281264
 H          5.7248778434       -1.2292805205        0.6004042363
 H          1.4873693880        1.1716827352        1.1592774381
 H          3.3184087141       -1.0310716214       -1.0580671711
 H          2.3079858624       -3.0601006682       -2.0416924224
 H         -0.0036656635       -3.6832387671       -1.5058185500
 H         -1.7341076195       -2.7394546995        1.2148273758
 C         -2.3846433487       -3.4081111263       -0.7104807543
 C         -2.2123120912       -4.8655096948       -0.4084877045
 C         -3.5371296709       -4.2042039905       -0.1789167397
 H         -4.3548025616       -4.4368153311       -0.8443704353
 H         -3.8448865072       -4.0092192153        0.8385433067
 H         -2.1237311077       -5.5565031226       -1.2332461648
 H         -1.6238014854       -5.1315852018        0.4567334661
 H         -2.4262087882       -3.0984741016       -1.7483237049
