  62
        -98.94464658
 C         -1.6865983514       -1.4162463130        0.1661029052
 C         -1.6320384749       -0.3330743097       -0.7450385472
 C         -2.9315501954        0.2106474040       -1.1700283594
 C         -4.0659219449       -0.3382365478       -0.6995872009
 C         -5.4502411939        0.1542980939       -1.0047212670
 C         -5.9143118803        1.1818837678        0.0370051860
 C         -4.8956618436        2.2889679005        0.3096602647
 H         -4.0106725777        1.8546987329        0.7811607230
 H         -5.3429061487        2.9710857371        1.0360614232
 C         -4.4676954158        3.0784044887       -0.9353859938
 H         -4.4686162800        4.1430913864       -0.6923221472
 H         -5.1924551554        2.9283400508       -1.7365179003
 C         -3.0670266420        2.7421508522       -1.4513297582
 H         -2.3459485370        2.8047196655       -0.6313587779
 H         -2.7853731722        3.5000191503       -2.1876789601
 C         -2.9142444949        1.3719086525       -2.1236487199
 H         -1.9327616064        1.3502019321       -2.6063530302
 H         -3.6795222037        1.2522950710       -2.8933637768
 H         -6.1100790116        0.6590909735        0.9760281939
 H         -6.8507472800        1.6243692805       -0.3073459544
 H         -5.4624126925        0.5975627978       -1.9984014031
 H         -6.1304310171       -0.6988910500       -0.9881328180
 O         -4.0779164270       -1.3885104049        0.1600842849
 C         -2.8964001142       -1.9362428793        0.6299719975
 O         -3.0517165293       -2.8714840337        1.4411276020
 H          1.9734065358       -0.6841491790        0.4090537227
 C          1.4545920105       -0.4136265628        1.3108136852
 C          0.2480875113       -1.0166311503        1.6238706628
 C         -0.3935515864       -0.6539376964        2.8063267936
 C          0.1628789296        0.2873951099        3.6498166815
 C          1.3604213044        0.9016362363        3.3221912896
 C          2.0041179591        0.5535563320        2.1425481805
 N          3.2281016363        1.1438848928        1.7761311966
 S          3.3133951759        1.8920446044        0.2686378528
 O          4.4722817854        2.7563140163        0.3708385664
 O          2.0696173504        2.5470021825       -0.0610746527
 C          3.6824569000        0.5777275127       -0.8715521236
 C          2.7618941744        0.2149221195       -1.8348488550
 C          3.0845396567       -0.8141832040       -2.7066264725
 C          4.3091765211       -1.4556234931       -2.6005236191
 C          5.2217310711       -1.0758723575       -1.6273157194
 C          4.9085780902       -0.0474335388       -0.7536229014
 H          5.5888566868        0.2849973396        0.0126781654
 H          6.1717409114       -1.5791710545       -1.5470256240
 H          4.5513862175       -2.2575701347       -3.2803201097
 H          2.3712811181       -1.1129507214       -3.4588216872
 H          1.8046234031        0.7125835236       -1.8647417176
 H          3.6080035207        1.7616022919        2.4805477796
 H          1.7908776832        1.6470330127        3.9744573330
 H         -0.3423530881        0.5544605932        4.5660968239
 H         -1.3367420291       -1.1235210601        3.0518718329
 C         -0.4123102665       -2.0323634532        0.7224220444
 H         -0.7353634088       -2.8766512445        1.3475522915
 C          0.4854729305       -2.5513278808       -0.3800259688
 C          1.5872528925       -3.5116570455       -0.0497944977
 C          0.3803622151       -3.9844435085       -0.8018913969
 H          0.4839152127       -4.2210097189       -1.8499990058
 H         -0.3351307042       -4.6064594382       -0.2836971291
 H          1.6919253653       -3.8141753687        0.9810977288
 H          2.5227872415       -3.4212099386       -0.5808108419
 H          0.6692893416       -1.8188343990       -1.1557308691
 O         -0.5628765822        0.1555381333       -1.1935488525
