  62
        -98.94047868
 C         -1.2417805969       -1.6005921389        0.0050101029
 C         -2.1838552239       -1.1409852861        0.9508900381
 C         -3.1149139868       -0.0856250713        0.5058571774
 C         -2.9887913820        0.4029272211       -0.7422808021
 C         -3.8454195264        1.4415424202       -1.4177465888
 C         -3.5634855616        2.8825628629       -0.9556290356
 C         -3.2439208885        3.0351072993        0.5295318172
 H         -2.4365090292        2.3501762849        0.7956966869
 H         -2.8770690051        4.0518988438        0.6933801602
 C         -4.4299005621        2.8174504013        1.4659066764
 H         -4.0766004101        2.9667413463        2.4895740067
 H         -5.1881055934        3.5776364099        1.2629850282
 C         -5.0947416926        1.4442376584        1.3821339679
 H         -5.8174058021        1.3810479733        2.2012345709
 H         -5.6617756185        1.3461796124        0.4606070993
 C         -4.1443194672        0.2629572662        1.5535385209
 H         -4.7426695523       -0.6456829080        1.6955526665
 H         -3.5867307046        0.3878847272        2.4890556326
 H         -2.7073391590        3.2545964760       -1.5203716205
 H         -4.4255320195        3.5022039084       -1.2076763960
 H         -3.6339375819        1.3708945434       -2.4866991515
 H         -4.8923964092        1.1857387948       -1.2755745498
 O         -2.0067564564       -0.0124172330       -1.5915466212
 C         -1.1272013978       -1.0272204048       -1.2611710245
 O         -0.3145769972       -1.3211966164       -2.1555139870
 O         -2.2583494130       -1.5994060251        2.1246650713
 C         -0.3288053974       -2.7562895112        0.3729650743
 C          1.1146808188       -2.3305677422        0.2866726677
 C          2.0725879953       -3.0025339821       -0.4598864635
 C          3.3778641476       -2.5417837136       -0.5058089149
 C          3.7582160186       -1.4135636935        0.1965629400
 C          2.8083316754       -0.7380468157        0.9528944680
 C          1.5016485746       -1.1969112109        0.9925701535
 H          0.7615150625       -0.6662462866        1.5793855499
 N          3.1890568764        0.4173502809        1.6717010960
 S          3.6730274543        1.7319385627        0.7518450322
 O          4.8854845433        1.3910473015        0.0537413059
 O          3.7555062280        2.8398677000        1.6760718171
 C          2.3426685719        1.9954474938       -0.4043204675
 C          2.2914555469        1.2411520515       -1.5594649381
 C          1.2159926244        1.4038806328       -2.4176032625
 C          0.2172377428        2.3130750061       -2.1065305192
 C          0.2841604826        3.0644359175       -0.9433459552
 C          1.3525799704        2.9000985268       -0.0776306341
 H          1.4437375525        3.4647592123        0.8366514634
 H         -0.4923054168        3.7732935145       -0.7038138530
 H         -0.6203074899        2.4271111094       -2.7766920648
 H          1.1487441278        0.8053288076       -3.3112100807
 H          3.0857635103        0.5443924199       -1.7717527050
 H          2.4834867425        0.7215928460        2.3283876986
 H          4.7663518853       -1.0339097079        0.1596230250
 H          4.1099410001       -3.0709804345       -1.0968049240
 H          1.7979466259       -3.8840965907       -1.0148035134
 H         -0.5544215858       -2.9830608761        1.4256128825
 C         -0.6605696051       -3.9711082221       -0.4678437980
 C         -0.3762469515       -5.3474596139        0.0525181371
 C         -1.7897281671       -4.8591612401       -0.0423599293
 H         -2.4320058366       -5.2775007858       -0.8027436461
 H         -2.3065617923       -4.6021573849        0.8709034373
 H         -0.0493984556       -6.1055810389       -0.6429907395
 H          0.0668735157       -5.4289844095        1.0334654823
 H         -0.5430674605       -3.7889390917       -1.5300882274
