  62
        -98.94129277
 C         -2.2336646802       -1.2409237992        0.6638117012
 C         -2.8262227500       -0.5125001499       -0.3963433694
 C         -3.2798142199        0.8454082104       -0.0605165105
 C         -3.0794800800        1.3411745113        1.1725989791
 C         -3.4669249899        2.7132738517        1.6524525580
 C         -2.4421336698        3.7997656513        1.2980948473
 C         -2.4202684095        4.2198133502       -0.1722213530
 H         -3.4339180594        4.4552648300       -0.4995653134
 H         -1.8342183294        5.1390046301       -0.2333670537
 C         -1.7991830295        3.1825511994       -1.1185053221
 H         -1.1129197493        3.6821840788       -1.8079550824
 H         -1.1930702796        2.4761868598       -0.5445517615
 C         -2.8121322694        2.4119345788       -1.9659938217
 H         -3.3105852092        3.0996971083       -2.6535680223
 H         -2.2668518294        1.6768916383       -2.5642404710
 C         -3.8840311996        1.6678111196       -1.1591930413
 H         -4.6036521096        2.3763939900       -0.7499768019
 H         -4.4066924196        0.9865066291       -1.8356660908
 H         -2.6756457298        4.6795913718        1.9024679566
 H         -1.4473937298        3.4493357114        1.5848978677
 H         -4.4430220098        2.9844784815        1.2490858676
 H         -3.5431004801        2.6523202626        2.7401810380
 O         -2.4916941202        0.6169947620        2.1608342798
 C         -2.0340188903       -0.6660747382        1.9225292108
 O         -1.4842828205       -1.2038678775        2.9053087413
 O         -2.9767699798       -0.9452220808       -1.5691398191
 C         -1.6376015403       -2.6319842894        0.5028532424
 C         -0.1678609703       -2.4850438898        0.1996523325
 C          0.8004177096       -3.2119663493        0.8809101032
 C          2.1466313396       -2.9938680197        0.6409517133
 C          2.5533421199       -2.0271469404       -0.2623561374
 C          1.5911181600       -1.2993634708       -0.9483908381
 C          0.2464368000       -1.5454619405       -0.7342245482
 H         -0.4907763699       -0.9686416809       -1.2753276287
 N          2.0013197503       -0.2321978816       -1.7968607889
 S          2.0997897703        1.2007639291       -0.9017627600
 O          1.0043864802        1.3171786200        0.0363220397
 O          2.2252742505        2.2663346384       -1.8716748108
 C          3.6330026601        0.9805651596       -0.0304324696
 C          3.6085295899        0.5915079207        1.2941350107
 C          4.8110502498        0.3732287811        1.9484240110
 C          6.0077611499        0.5453833004        1.2692704311
 C          6.0143399601        0.9372975994       -0.0613687492
 C          4.8159497603        1.1557506690       -0.7218165896
 H          4.7696572104        1.4635399482       -1.7531687198
 H          6.9472430502        1.0704573889       -0.5849452392
 H          6.9410272398        0.3723704507        1.7815279514
 H          4.8063211596        0.0668825119        2.9821316813
 H          2.6537253898        0.4659099212        1.7810908906
 H          1.3483344004       -0.0757083121       -2.5543813891
 H          3.5981904199       -1.8290496407       -0.4377131974
 H          2.8864596395       -3.5661971693        1.1787497538
 H          0.4913184194       -3.9333528987        1.6230014037
 H         -1.7238371305       -3.1081612986        1.4927516928
 C         -2.3743061303       -3.5119102301       -0.4948132370
 C         -1.8081268201       -3.8868875012       -1.8283191966
 C         -1.8992455804       -4.9133282703       -0.7419354459
 H         -2.6339086805       -5.6988862003       -0.8307904153
 H         -0.9792591305       -5.2174761400       -0.2661992055
 H         -2.4906469900       -3.9436423617       -2.6622953867
 H         -0.8327442400       -3.5082416915       -2.0924715068
 H         -3.4473294603       -3.3600986199       -0.4544629373
