  62
        -98.94472418
 C          2.0088010075        1.3690814446        0.3089971802
 C          2.6538038525        0.7700142721       -0.8000929487
 C          3.8070225280       -0.0851970615       -0.4825064693
 C          4.1788557691       -0.2441558695        0.8007634427
 C          5.2945750551       -1.1330969896        1.2669153818
 C          4.7804978330       -2.5426315610        1.5924431113
 C          3.9044788690       -3.1498101008        0.4962014325
 H          3.6238862772       -4.1538868070        0.8222818121
 H          2.9812556942       -2.5710535927        0.4130474520
 C          4.5757634268       -3.2287939510       -0.8821212013
 H          4.3766396246       -4.2127791187       -1.3118834608
 H          5.6569235760       -3.1356286233       -0.7731055510
 C          4.0768350474       -2.1929694017       -1.8915777514
 H          2.9846623068       -2.2198634595       -1.9360480093
 H          4.4502377586       -2.4748153203       -2.8796685476
 C          4.5132388870       -0.7452910934       -1.6328450574
 H          5.5958552312       -0.7055661511       -1.4970019454
 H          4.2547681619       -0.1584775494       -2.5191098847
 H          5.6397111294       -3.1908309572        1.7735475186
 H          4.1926314729       -2.4934997013        2.5121116981
 H          6.0594763599       -1.1832474594        0.4946547164
 H          5.7286167510       -0.6974596113        2.1684432379
 O          3.5364588881        0.3516581830        1.8381672202
 C          2.4284881125        1.1555081109        1.6211188569
 O          1.9087635098        1.6087956939        2.6617911433
 H         -0.0689716292       -0.1594967700        0.7777141526
 C         -0.6120766708        0.2084421311       -0.0847723551
 C         -0.2956081051        1.4617110228       -0.5960955463
 C         -1.0133875490        1.9300137788       -1.6880756080
 C         -1.9941421838        1.1452881768       -2.2714625888
 C         -2.2876808590       -0.1111655129       -1.7761338228
 C         -1.5912595980       -0.5797734570       -0.6684321221
 N         -1.8962819032       -1.8463069972       -0.1420858354
 S         -3.5105538996       -2.2549536534        0.0277839837
 O         -3.5492677347       -3.1935314150        1.1274367761
 O         -4.0226566965       -2.7400445432       -1.2295763042
 C         -4.3385210796       -0.7369178960        0.4685443709
 C         -5.3368425112       -0.2364847918       -0.3420958669
 C         -5.9468371972        0.9582796442        0.0054521628
 C         -5.5464292482        1.6305716128        1.1494573214
 C         -4.5440310366        1.1130649655        1.9558530377
 C         -3.9327882891       -0.0823059862        1.6147424130
 H         -3.1532859024       -0.5115395648        2.2242148812
 H         -4.2326553266        1.6367407914        2.8455601620
 H         -6.0173601387        2.5632994646        1.4167324397
 H         -6.7279227539        1.3619701853       -0.6182779998
 H         -5.6139434401       -0.7900353667       -1.2244238694
 H         -1.3665232847       -2.0893356916        0.6815539025
 H         -3.0335641626       -0.7415194108       -2.2324158693
 H         -2.5344782547        1.5163838188       -3.1286795646
 H         -0.7977676927        2.9052895905       -2.0915906282
 C          0.7934285224        2.2520602182        0.0890613925
 H          0.4335637844        2.5278596628        1.0911765869
 C          1.1871531358        3.5135121771       -0.6502428347
 C          0.4200385014        4.7829465269       -0.4378176485
 C          1.8018682619        4.6395190046        0.1236115918
 H          2.6065471920        5.1983921953       -0.3300695153
 H          1.9127384221        4.5050344904        1.1900750835
 H         -0.4105457788        4.7562648106        0.2510061300
 H          0.2773013997        5.4461810509       -1.2775082208
 H          1.5841725293        3.3103477324       -1.6379617774
 O          2.2867638744        0.9364306534       -1.9917252703
