  62
        -98.93916253
 C         -2.4233831995       -1.2144647637       -0.0609240060
 C         -3.5242156025       -0.9183000957        0.7787651799
 C         -4.4644768113        0.1078322159        0.2976803785
 C         -4.2247915629        0.7088203234       -0.8807008627
 C         -5.0157743469        1.8163783802       -1.5200855220
 C         -4.4285493349        3.1885450898       -1.1477458989
 C         -4.9638806748        3.7871047000        0.1525646074
 H         -4.3775380151        4.6849126462        0.3613714166
 H         -5.9996337421        4.0993192052        0.0033922725
 C         -4.9017184776        2.8645871676        1.3727487105
 H         -3.9423473033        2.3438908165        1.3909086391
 H         -4.9463566847        3.4896323513        2.2667386921
 C         -6.0516987800        1.8475402881        1.4199316669
 H         -6.8106936564        2.1348252076        0.6925456783
 H         -6.5307679052        1.8897306557        2.4002284875
 C         -5.6434108497        0.3848268594        1.1904737884
 H         -6.5065174128       -0.1706129523        0.8088174691
 H         -5.3769076455       -0.0723618097        2.1484423669
 H         -4.6409713002        3.8914883408       -1.9559516331
 H         -3.3419822004        3.0827899389       -1.0855601837
 H         -4.9245184705        1.6808021464       -2.5997839892
 H         -6.0642820533        1.7497212115       -1.2454158664
 O         -3.1469958431        0.4023698495       -1.6538411913
 C         -2.2222101055       -0.5552734351       -1.2731933402
 O         -1.2985479676       -0.7232541228       -2.0934690454
 O         -3.7123072134       -1.4866157343        1.8876635551
 C         -1.4224293427       -2.2571458075        0.4099333632
 C         -0.1201697230       -1.5559707013        0.7053935348
 C          0.0186889509       -0.8629209468        1.9052543604
 C          1.1710056948       -0.1516801268        2.1800201837
 C          2.2058488979       -0.1074764668        1.2612220137
 C          2.0693560098       -0.7799661197        0.0550925969
 C          0.9195902711       -1.5133398784       -0.2093745470
 H          0.8237897055       -2.0213816264       -1.1557615192
 N          3.1089254068       -0.7342289964       -0.8894710299
 S          3.8128630834        0.7508490302       -1.2295262636
 O          2.8927631477        1.8464231291       -1.0279423980
 O          4.3668934350        0.6106515995       -2.5588715232
 C          5.1519615190        0.8539268521       -0.0580439176
 C          5.3035925605        1.9878175377        0.7157681051
 C          6.3590489547        2.0520171097        1.6123917948
 C          7.2403612577        0.9870868369        1.7180423419
 C          7.0760810302       -0.1435742251        0.9316616707
 C          6.0239761945       -0.2134764612        0.0326318479
 H          5.8624706437       -1.0725937767       -0.5966258295
 H          7.7631252503       -0.9699906815        1.0169441567
 H          8.0595713685        1.0385987109        2.4176878507
 H          6.4877836882        2.9305464807        2.2240651484
 H          4.5891927962        2.7881478683        0.6045492117
 H          2.8929120534       -1.2267586746       -1.7445520545
 H          3.1021720522        0.4559893266        1.4627176693
 H          1.2659585512        0.3772686589        3.1161741495
 H         -0.7979833846       -0.8798097262        2.6136126312
 H         -1.8272018827       -2.6406000461        1.3561128134
 C         -1.2972317217       -3.4065007724       -0.5674226472
 C         -0.6388574478       -4.6774993662       -0.1232046614
 C         -2.1188981738       -4.6408574630       -0.3538180989
 H         -2.5200685500       -5.1470289265       -1.2190974555
 H         -2.7722361355       -4.6628842287        0.5059298309
 H         -0.0215769276       -5.2131655669       -0.8280755357
 H         -0.2855439832       -4.7228828910        0.8956985045
 H         -1.1473892964       -3.0859403020       -1.5914754088
