  62
        -98.93950173
 C         -1.3926360571       -0.8269540657       -0.1503020765
 C         -2.5064695444       -0.8216364262        0.7279174581
 C         -3.4783496463        0.2720303947        0.5758729072
 C         -3.2633404649        1.2117630965       -0.3602317612
 C         -4.0823433639        2.4406289385       -0.6688046513
 C         -5.6096155079        2.2947264080       -0.6664472329
 C         -6.1299396843        0.9360616155       -1.1581342239
 H         -6.8825549132        1.1027977431       -1.9309403570
 H         -5.3165661029        0.3675879404       -1.6122832016
 C         -6.7737503088        0.1053187642       -0.0456048009
 H         -7.4002701809        0.7609933953        0.5629548060
 H         -7.4277551872       -0.6429600526       -0.4997072202
 C         -5.7973597024       -0.6392332176        0.8641214642
 H         -6.3724899192       -1.0945214689        1.6739095528
 H         -5.3231671830       -1.4540372129        0.3105615590
 C         -4.6779701172        0.2176220345        1.4779453135
 H         -4.3416974626       -0.2748677569        2.3945097711
 H         -5.0359771846        1.2125376609        1.7317046102
 H         -5.9916361579        2.4807837830        0.3362864861
 H         -6.0022318669        3.0888729472       -1.3039273974
 H         -3.7464210567        2.7645509189       -1.6571589331
 H         -3.7941174769        3.2244552129        0.0384154276
 O         -2.1791929432        1.1750913777       -1.1820826294
 C         -1.2182779085        0.1763141435       -1.1032213301
 O         -0.3013199888        0.3111269236       -1.9364858664
 O         -2.6798185365       -1.7037579798        1.6119241518
 C         -0.3993691816       -1.9573970613        0.0403573298
 C          0.6887158609       -1.5960261614        1.0265669191
 C          1.1711819526       -2.5468441856        1.9194608364
 C          2.1826595451       -2.2294538609        2.8070449565
 C          2.7391401212       -0.9632102228        2.8149483271
 C          2.2609970993       -0.0028792377        1.9304356659
 C          1.2420171260       -0.3249982634        1.0442149055
 H          0.8690915249        0.4357133810        0.3774698825
 N          2.7897192900        1.2949050357        1.9351699776
 S          2.9551465831        2.1566296085        0.5107911813
 O          3.9196629743        3.1860145242        0.8412530860
 O          1.6710461133        2.6252404733        0.0565100716
 C          3.6910827148        1.0028845181       -0.6323740910
 C          2.9615551589        0.4642826352       -1.6712491390
 C          3.5745411362       -0.4627621323       -2.5019237231
 C          4.8909871713       -0.8334933126       -2.2811098257
 C          5.6115840425       -0.2769732065       -1.2346683059
 C          5.0072970128        0.6485085173       -0.4012244536
 H          5.5365363392        1.1155756509        0.4134760785
 H          6.6373905698       -0.5628104611       -1.0668490904
 H          5.3577422068       -1.5577968412       -2.9299043375
 H          3.0103786790       -0.8904843596       -3.3158438407
 H          1.9337511625        0.7588990115       -1.8186098990
 H          3.5805663077        1.4296906330        2.5476371617
 H          3.5272052137       -0.7117485079        3.5078405798
 H          2.5437882390       -2.9744653590        3.4992168597
 H          0.7357664267       -3.5344371323        1.9269069682
 H         -0.9790689206       -2.7816337960        0.4799298124
 C          0.2383015176       -2.4510282165       -1.2443606483
 C          0.6969280055       -3.8735270465       -1.3461297578
 C         -0.5044576640       -3.4161989792       -2.1167264218
 H         -0.4278191359       -3.3037192614       -3.1875468303
 H         -1.4791524843       -3.7419953808       -1.7831053327
 H          1.6071252186       -4.0808320757       -1.8868490281
 H          0.5326864808       -4.5194260668       -0.4975301595
 H          0.8338256485       -1.6949137376       -1.7378590342
