  62
        -98.93821224
 C          2.6722805965        1.1962871288        0.2195887034
 C          3.0902026975        0.2648510416        1.2051261819
 C          4.2965163279       -0.5101128069        0.9004471403
 C          4.9484087163       -0.2957298378       -0.2565240367
 C          6.2092623507       -0.9837964225       -0.7046115465
 C          5.9740240591       -2.3456561165       -1.3721963230
 C          5.5612370879       -3.4724301794       -0.4243336077
 H          5.6448046190       -4.4070016446       -0.9826032399
 H          6.2673364677       -3.5247683189        0.4049968777
 C          4.1313447067       -3.3499035387        0.1207720684
 H          3.5648199711       -2.6470482278       -0.4945762132
 H          3.6287990450       -4.3168021798        0.0456753445
 C          4.0448112990       -2.9076524513        1.5816102055
 H          4.4908231341       -3.6709315073        2.2232048670
 H          2.9890259556       -2.8163851317        1.8494399924
 C          4.7252578288       -1.5643942252        1.8756530233
 H          4.4222000791       -1.2369500672        2.8732238725
 H          5.8089224475       -1.6794757402        1.8593828054
 H          5.2155796262       -2.2272304372       -2.1494029289
 H          6.9078149684       -2.6342648445       -1.8602740098
 H          6.6829507783       -0.3209613890       -1.4319639293
 H          6.8820550879       -1.1048398582        0.1449415564
 O          4.5287132486        0.6173732478       -1.1692136422
 C          3.3731044057        1.3680682759       -0.9751971288
 O          3.1110009299        2.1281620805       -1.9241709521
 O          2.4842241105        0.1001684127        2.2984590329
 C          1.4213195700        1.9961600718        0.5355835618
 C          0.1903944405        1.3069376041        0.0041902678
 C          0.0923281098        0.9252931503       -1.3304037443
 C         -1.0506721865        0.3022178434       -1.7974166745
 C         -2.1122997040        0.0406833076       -0.9484158723
 C         -2.0237482467        0.4132277347        0.3857352895
 C         -0.8764655525        1.0445791164        0.8508551998
 H         -0.8065407631        1.3231796027        1.8939192938
 N         -3.0880088362        0.1323355232        1.2564615291
 S         -4.6490316156        0.5236746466        0.7814265208
 O         -4.6574390592        1.6556237103       -0.1154552379
 O         -5.3894344523        0.6742121458        2.0147546682
 C         -5.2210894874       -0.9344836701       -0.0643802707
 C         -5.1211947830       -2.1484150555        0.5867335409
 C         -5.5771561649       -3.2898273512       -0.0530174265
 C         -6.1256710569       -3.1983118486       -1.3237176804
 C         -6.2218154427       -1.9716373199       -1.9625189076
 C         -5.7661463684       -0.8260009018       -1.3286725099
 H         -5.8150977141        0.1478408667       -1.7894357833
 H         -6.6484991912       -1.9025376946       -2.9502666244
 H         -6.4801118643       -4.0884876029       -1.8190374186
 H         -5.5033184553       -4.2457088297        0.4401605844
 H         -4.6908883617       -2.1778244070        1.5738894742
 H         -2.9187451360        0.4007242970        2.2149103696
 H         -3.0034515784       -0.4455701829       -1.3103146670
 H         -1.1154647528        0.0143962642       -2.8358699020
 H          0.9189104671        1.1281866814       -1.9947665706
 H          1.3558956841        1.9789637912        1.6355097452
 C          1.5149000914        3.4567085018        0.1165996318
 C          0.7101334421        4.0638305895       -0.9888728694
 C          0.3923378606        4.4001373348        0.4352847474
 H          0.6309297461        5.3859883484        0.8045611105
 H         -0.5090510986        3.9776100637        0.8548335587
 H          1.1923114129        4.8061571467       -1.6061807195
 H          0.0195324646        3.4349285444       -1.5278781813
 H          2.5211545929        3.8446771204        0.2393957761
