  62
        -98.94339371
 C          1.1160730442        1.2959758170       -0.1344352262
 C          1.9115659862        0.8646793984        0.9595445973
 C          2.8067495230       -0.2714506859        0.7108952840
 C          2.7969743712       -0.8589680168       -0.4990417181
 C          3.7044778088       -1.9787902305       -0.9172691762
 C          4.9923834301       -1.4376770057       -1.5541594786
 C          5.6799886508       -0.3501317712       -0.7284463355
 H          6.5937337502       -0.0695797051       -1.2569092041
 H          5.0408670536        0.5354394947       -0.7012860538
 C          6.0277007411       -0.7666751107        0.7077037102
 H          6.0137737808       -1.8538569366        0.7924047085
 H          7.0451676225       -0.4384066508        0.9304675549
 C          5.1202987439       -0.1620806766        1.7809963730
 H          5.5810668489       -0.3420792017        2.7559403882
 H          5.0615808288        0.9205096484        1.6429296873
 C          3.6920473369       -0.7188053993        1.8396756914
 H          3.2269833175       -0.3397883725        2.7542688378
 H          3.7267909990       -1.8085849273        1.8972738730
 H          5.6803515065       -2.2716969532       -1.7042300263
 H          4.7467860097       -1.0199380994       -2.5332550085
 H          3.1796648191       -2.5936855596       -1.6498471366
 H          3.9506951093       -2.5882368052       -0.0498645204
 O          1.9811400053       -0.4589171424       -1.5038427006
 C          1.1301123398        0.6282594685       -1.3595397740
 O          0.4609460646        0.8716385615       -2.3819866967
 O          1.8816106129        1.4182603860        2.0904782806
 C          0.2451831063        2.5191207817        0.1027590104
 C         -1.1531637258        2.1115232962        0.4851721845
 C         -1.7299908887        2.5354733501        1.6759373605
 C         -3.0036275703        2.1222376431        2.0308620493
 C         -3.7259602187        1.2765651280        1.2075609443
 C         -3.1541718176        0.8456500439        0.0177466200
 C         -1.8814882129        1.2628994207       -0.3384594784
 H         -1.4427644358        0.9214476402       -1.2645782173
 N         -3.8662059899       -0.0562747909       -0.8106408079
 S         -3.9405957229       -1.6160625827       -0.2038370785
 O         -4.4981219418       -2.4297689076       -1.2591223845
 O         -4.6719384500       -1.5870480409        1.0367040410
 C         -2.2461985921       -2.0868265842        0.1008490095
 C         -1.5840484207       -2.8465381768       -0.8420611283
 C         -0.2609681469       -3.1900482074       -0.6175554739
 C          0.3786925983       -2.7536673579        0.5318068056
 C         -0.2923625654       -1.9710359729        1.4582714729
 C         -1.6199472092       -1.6367353460        1.2465485285
 H         -2.1750588302       -1.0445097968        1.9558007724
 H          0.2164399905       -1.6140459798        2.3398171012
 H          1.4076548347       -3.0223925284        0.7085635514
 H          0.2676054071       -3.7923528731       -1.3389406793
 H         -2.1194745019       -3.1658125539       -1.7220268181
 H         -3.4872312108       -0.0968026678       -1.7477585031
 H         -4.7078878966        0.9240151749        1.4776277452
 H         -3.4371575615        2.4590302476        2.9601520003
 H         -1.1669615643        3.1801732947        2.3347841044
 H          0.6954402225        3.0118264841        0.9786527977
 C          0.2905154467        3.5138994773       -1.0501695790
 C         -0.8891650456        3.8594346434       -1.9044154439
 C         -0.3751386295        4.8509280396       -0.9070805897
 H          0.1406308712        5.7297376364       -1.2631102033
 H         -0.9679567565        5.0147856248       -0.0196259360
 H         -0.7095962622        4.0344705501       -2.9543934033
 H         -1.8326445769        3.3775851586       -1.7020927030
 H          1.2525016988        3.5045100810       -1.5529757343
