  62
        -98.93288504
 C         -2.7167130482       -1.0368375406        0.3339874200
 C         -2.7506623215       -0.2436686060       -0.8401816393
 C         -3.3903081618        1.0742714043       -0.6984722563
 C         -3.9173168946        1.4333071451        0.4853413410
 C         -4.5256131444        2.7724418553        0.7834243434
 C         -3.4722300031        3.7447848474        1.3338119479
 C         -2.1868006482        3.7988451929        0.5073667113
 H         -1.5316843346        4.5368034555        0.9756758475
 H         -1.6794843232        2.8330640304        0.5713904888
 C         -2.3955650502        4.1638320892       -0.9691458264
 H         -3.3733245843        4.6288770680       -1.1000108719
 H         -1.6442003770        4.9023946372       -1.2559886701
 C         -2.2593479653        2.9889565304       -1.9396309614
 H         -1.3211910592        2.4611878501       -1.7490807260
 H         -2.2086778123        3.3911949612       -2.9547607174
 C         -3.4007413546        1.9645938249       -1.9089313234
 H         -4.3599582635        2.4766825389       -2.0054437796
 H         -3.2748894949        1.3012854062       -2.7694210190
 H         -3.9154670092        4.7408731746        1.3858307575
 H         -3.2131118455        3.4353203355        2.3492473642
 H         -4.9689126587        3.1756849617       -0.1247521344
 H         -5.3089943127        2.6378161595        1.5311471395
 O         -3.9003767353        0.6266023445        1.5786630162
 C         -3.2753697003       -0.6084214102        1.5376163464
 O         -3.2803760506       -1.2228170323        2.6258216315
 H         -0.2496000045       -1.0106996952        1.6327715764
 C          0.1839671776       -1.3547441169        0.7005076289
 C         -0.5928498885       -2.1450564384       -0.1453771353
 C         -0.0182485815       -2.5682733399       -1.3356706422
 C          1.2797458243       -2.2054573539       -1.6585233775
 C          2.0338391553       -1.4046197283       -0.8231443322
 C          1.4740428008       -0.9709986875        0.3720376226
 N          2.1951961269       -0.1185979079        1.2204529252
 S          3.8389389121       -0.3263401433        1.4482499758
 O          4.2194299125       -1.7178015199        1.3719398906
 O          4.1291221914        0.3484205710        2.6945027778
 C          4.5734453584        0.5860213388        0.1072386666
 C          4.1174429430        1.8664018181       -0.1379626295
 C          4.6899443441        2.5948196660       -1.1683215937
 C          5.7060896595        2.0357964426       -1.9289990647
 C          6.1552736148        0.7504998113       -1.6680039446
 C          5.5853825434        0.0157053883       -0.6397798189
 H          5.8976061232       -0.9897885853       -0.4063780004
 H          6.9449150866        0.3176813254       -2.2608385759
 H          6.1493000497        2.6054662388       -2.7304495433
 H          4.3412913511        3.5939477759       -1.3748143004
 H          3.3257051052        2.2657191043        0.4740489146
 H          1.7220274725        0.1170080623        2.0795780997
 H          3.0391055729       -1.1163306182       -1.0827687895
 H          1.7044139980       -2.5442081038       -2.5913338781
 H         -0.5736606142       -3.1581840556       -2.0409731287
 C         -2.0020246852       -2.3846934825        0.3447025639
 H         -1.9163541857       -2.6497364910        1.4116432180
 C         -2.9014511776       -3.4525633599       -0.2574557053
 C         -3.1282601323       -3.6871190204       -1.7181917816
 C         -2.4252077057       -4.7241574602       -0.8925098240
 H         -2.9621511710       -5.6320158404       -0.6594462615
 H         -1.3647282247       -4.8691496517       -1.0184630803
 H         -2.5769635024       -3.0840572835       -2.4203512434
 H         -4.1405805611       -3.8921884180       -2.0368235363
 H         -3.7883861088       -3.5448244826        0.3670695585
 O         -2.2671168653       -0.5980618261       -1.9429021162
