  62
        -98.94305479
 C         -1.7158149199       -0.9753393704        0.2957829298
 C         -2.9185783697       -0.8197160104        1.0360938300
 C         -3.6705297595        0.4214867599        0.8124522206
 C         -3.1636907494        1.3549774900       -0.0124565792
 C         -3.8412678991        2.6454782603       -0.3688226187
 C         -4.7103571794        2.4853697909       -1.6241917886
 C         -5.6427930196        1.2746671711       -1.5802144189
 H         -5.0431863699        0.3613892910       -1.5872175092
 H         -6.2272885998        1.2804677416       -2.5028516688
 C         -6.5919412895        1.2475010510       -0.3739138787
 H         -7.5921966096        0.9806169813       -0.7215293486
 H         -6.6580823092        2.2423256808        0.0680814816
 C         -6.2125891795        0.2362917705        0.7097608109
 H         -6.0571343998       -0.7458349694        0.2555924106
 H         -7.0552772394        0.1459404805        1.4003442410
 C         -4.9731402693        0.5854995300        1.5432725308
 H         -4.9333530493       -0.1091244703        2.3874745206
 H         -5.0693814090        1.5991627299        1.9375347912
 H         -4.0527270195        2.3790148710       -2.4901937988
 H         -5.2990730892        3.3950902911       -1.7552364382
 H         -4.4526406889        2.9730872402        0.4697117215
 H         -3.0743576190        3.3969203402       -0.5633433586
 O         -1.9835644295        1.1998477700       -0.6593411395
 C         -1.2392514098        0.0295202097       -0.5486518300
 O         -0.2083365399        0.0382434597       -1.2454807901
 H          1.2244865896       -2.1454960107       -1.1379775711
 C          1.4757533298       -1.8868153610       -0.1215160210
 C          0.4966495200       -1.9219362211        0.8579102591
 C          0.8374896003       -1.5592791616        2.1573489592
 C          2.1303808404       -1.1796594320        2.4681467891
 C          3.1011457703       -1.1220969819        1.4832464490
 C          2.7614503600       -1.4583125814        0.1793314789
 N          3.7171277098       -1.3405392414       -0.8429375312
 S          4.7547385702       -0.0315802716       -0.8066741310
 O          5.0772930500        0.2366489088       -2.1917200809
 O          5.8830942902       -0.3454848422        0.0379822788
 C          3.8697939406        1.3521206284       -0.0996829504
 C          2.5657341606        1.6086685688       -0.4725008901
 C          1.9186927010        2.7036129688        0.0790995404
 C          2.5799649413        3.5257182383        0.9774003205
 C          3.8924229113        3.2582973079        1.3352631802
 C          4.5430132509        2.1613720379        0.7948958498
 H          5.5583291509        1.9089518776        1.0551243995
 H          4.4073423316        3.8969419576        2.0348105204
 H          2.0684580616        4.3755866383        1.4013645609
 H          0.8934041810        2.8941075891       -0.1976011994
 H          2.0400616003        0.9607710991       -1.1559860002
 H          3.3345934197       -1.4726378510       -1.7679985712
 H          4.1114080004       -0.8166277623        1.7042174889
 H          2.3841944506       -0.9134194224        3.4827533892
 H          0.0732025304       -1.5713707117        2.9218066193
 C         -0.9323604802       -2.2583503607        0.5226309293
 H         -1.3991065101       -2.7059947508        1.4143682092
 C         -1.0507011306       -3.2885491003       -0.5910189510
 C         -2.3748003208       -3.5449373098       -1.2449341709
 C         -1.2575438407       -2.9304796998       -2.0309155809
 H         -0.7669086610       -3.5354453797       -2.7799427912
 H         -1.3241809605       -1.8863691497       -2.2928214206
 H         -3.2003371806       -2.9120069597       -0.9530881406
 H         -2.6596416910       -4.5639620996       -1.4588164012
 H         -0.4320155608       -4.1594626305       -0.3953335814
 O         -3.3442665898       -1.6835162305        1.8479375698
