  62
        -98.94438451
 C          2.3419534312        1.1247238528        0.2389904553
 C          2.3824492324       -0.1325586252       -0.4113603194
 C          3.3679850384       -1.0889064823        0.1110283003
 C          4.1315272563       -0.7602806272        1.1682828993
 C          5.1603458875       -1.6375597585        1.8283571573
 C          6.5326679359       -1.6177082259        1.1411001149
 C          6.6009129617       -2.3533737957       -0.1977808544
 H          7.6570733836       -2.4479622776       -0.4576562558
 H          6.2038098292       -3.3618208207       -0.0775790241
 C          5.8717486364       -1.6447241785       -1.3477856672
 H          5.6909952428       -0.6020191417       -1.0770221851
 H          6.5089647318       -1.6394204813       -2.2349391393
 C          4.5440268035       -2.2879746673       -1.7485425650
 H          4.0968155963       -1.6856626856       -2.5434557873
 H          4.7261705276       -3.2886105904       -2.1469148710
 C          3.5250645154       -2.3958291081       -0.6063785901
 H          3.8222819698       -3.1793562275        0.0904825421
 H          2.5539787794       -2.6598263919       -1.0333477337
 H          6.8382778440       -0.5782705832        1.0018076458
 H          7.2451903828       -2.0851060147        1.8246246692
 H          4.7905894343       -2.6622234946        1.8773597555
 H          5.2798881355       -1.2621781129        2.8469365773
 O          4.0350291069        0.4443948051        1.7904456753
 C          3.1548814121        1.4122518612        1.3391420686
 O          3.1868041641        2.4748485032        1.9912255429
 O          1.6475053172       -0.4550575378       -1.3822710384
 C          1.3790424505        2.2206691677       -0.1935872949
 C         -0.0186395347        1.8011701575        0.1924042013
 C         -0.4835622425        2.0759764856        1.4754197525
 C         -1.7347266030        1.6483817833        1.8782513127
 C         -2.5445765464        0.9298218086        1.0154391509
 C         -2.0815600849        0.6340934101       -0.2589985326
 C         -0.8334898407        1.0845248605       -0.6697181713
 H         -0.4793261152        0.8342727032       -1.6570090060
 N         -2.8885771810       -0.1048629998       -1.1406246458
 S         -3.6507226049       -1.4831889725       -0.5624978081
 O         -2.9141758578       -2.0952154398        0.5194336493
 O         -3.8821620017       -2.3057129324       -1.7301686310
 C         -5.2172442834       -0.8749808426        0.0301007343
 C         -5.9786787950       -0.0979492413       -0.8209832090
 C         -7.2042300325        0.3744213415       -0.3795939367
 C         -7.6474563546        0.0610314529        0.8967871440
 C         -6.8733299144       -0.7233394421        1.7378841668
 C         -5.6456284943       -1.1981179994        1.3026700988
 H         -5.0069497776       -1.8056180893        1.9242777543
 H         -7.2190949852       -0.9663721359        2.7298140066
 H         -8.6015277849        0.4304409408        1.2382393476
 H         -7.8086662866        0.9851918974       -1.0306977235
 H         -5.5994535030        0.1211307058       -1.8050356144
 H         -2.4433089450       -0.2907233896       -2.0281441749
 H         -3.5161447960        0.5831166306        1.3274301491
 H         -2.0836570078        1.8728955588        2.8747876723
 H          0.1581374540        2.6162595147        2.1576217715
 H          1.6435149877        3.1027673129        0.4042224809
 C          1.5298412442        2.5668925422       -1.6603703598
 C          0.9260947240        3.8375698203       -2.1757579180
 C          2.4141492375        3.7102799095       -2.0534352747
 H          3.0014156987        3.6201867797       -2.9550895367
 H          2.9111099863        4.2527340311       -1.2622808071
 H          0.4895806134        3.8385968503       -3.1627555889
 H          0.4115722755        4.4668448329       -1.4654788532
 H          1.5260846014        1.7025528432       -2.3120669044
