  62
        -98.94965689
 C         -1.5014868893       -1.0755434101        0.0288023698
 C         -2.5090808492       -0.6349732005        0.9168325801
 C         -3.0132433196        0.7252544094        0.6918385705
 C         -2.4768523601        1.4713738297       -0.2915762595
 C         -2.9214490406        2.8582558097       -0.6539816192
 C         -4.0171170209        2.8300288096       -1.7289990889
 C         -5.1616776005        1.8660463192       -1.4164896387
 H         -5.8886783508        1.9501852091       -2.2269953285
 H         -4.7789149302        0.8431073693       -1.4310220690
 C         -5.8596648302        2.1253311888       -0.0741884385
 H         -6.9399735603        2.0730783485       -0.2246540482
 H         -5.6290491204        3.1324812988        0.2747965416
 C         -5.5141993497        1.1186085187        1.0246308413
 H         -5.6556586895        0.1024293287        0.6481699511
 H         -6.2155122195        1.2626256883        1.8508716715
 C         -4.0980429795        1.2230776390        1.6054277409
 H         -3.8990415197        2.2520590290        1.9133684610
 H         -4.0549325891        0.5866585988        2.4945704808
 H         -4.4112233412        3.8411420495       -1.8460414986
 H         -3.5638790310        2.5293120598       -2.6763154090
 H         -3.2849029305        3.3614105494        0.2401097110
 H         -2.0566461008        3.4037114100       -1.0361725093
 O         -1.4934259502        1.0232281501       -1.1104054798
 C         -0.9758376498       -0.2521160797       -0.9658508002
 O         -0.0708907300       -0.5358965994       -1.7752584205
 H          0.4333761210       -0.6283953098        1.6040920594
 C          1.0994530110       -1.3459898495        1.1471444891
 C          0.5816501711       -2.3805413695        0.3782981690
 C          1.4669832512       -3.2924463692       -0.1835716114
 C          2.8321130612       -3.1509332989       -0.0020563017
 C          3.3440622811       -2.0884614188        0.7199682583
 C          2.4657515110       -1.1776085292        1.2946617087
 N          2.9299184209       -0.0586379292        2.0201225988
 S          2.6079914003        1.4453244109        1.3489195891
 O          3.2421077003        2.3958441009        2.2381504491
 O          1.1908322002        1.6049942105        1.1510938395
 C          3.4844656499        1.4204047414       -0.2051242711
 C          4.7543794698        1.9648556517       -0.2488555814
 C          5.4797859595        1.8860245221       -1.4260144516
 C          4.9292233593        1.2559664521       -2.5323207115
 C          3.6563170195        0.7111581518       -2.4696826813
 C          2.9209164198        0.7895607714       -1.2959698311
 H          1.9256308299        0.3764322411       -1.2318796109
 H          3.2202306094        0.2199872318       -3.3247920312
 H          5.4936353591        1.1897194625       -3.4490864417
 H          6.4689567093        2.3118383124       -1.4764771918
 H          5.1377877299        2.4474982017        0.6357853786
 H          3.9134705610       -0.1073219489        2.2512287685
 H          4.4096059111       -1.9608349886        0.8381066681
 H          3.5066359213       -3.8669710286       -0.4458565920
 H          1.0871371513       -4.1126503592       -0.7706369514
 C         -0.9145308889       -2.4640549999        0.2006728194
 H         -1.3542278485       -2.8571945002        1.1300338695
 C         -1.3308831690       -3.3563746898       -0.9515615406
 C         -1.5449802685       -4.8247753299       -0.7399441208
 C         -2.7189833688       -3.9207045502       -0.9614745504
 H         -3.2471547490       -3.9765875402       -1.9015057402
 H         -3.3525689886       -3.6855001305       -0.1185762801
 H         -1.3895829781       -5.2152727201        0.2543759991
 H         -1.2695569885       -5.5052223697       -1.5315715810
 H         -0.9174459293       -3.0278648796       -1.8987805907
 O         -2.9614284388       -1.3457796808        1.8568753201
