  62
        -98.94488424
 C          1.9102289340       -0.3027957872       -0.0545131431
 C          2.9804172536       -0.5109838405       -0.9624295214
 C          4.1917123699        0.2802844240       -0.7250227976
 C          4.2183684296        1.1710949237        0.2827108445
 C          5.3683757048        2.0743151509        0.6366554498
 C          6.4348509011        1.4099461314        1.5182999278
 C          7.3172531320        0.3816016092        0.8093984323
 H          7.7334679200        0.8245423303       -0.0959748135
 H          8.1521693516        0.1618966329        1.4777838706
 C          6.6046270095       -0.9329111631        0.4619649263
 H          5.6857855055       -1.0145249164        1.0471085056
 H          7.2392270885       -1.7762033344        0.7436530965
 C          6.2638811456       -1.0977300719       -1.0191498117
 H          7.1851182341       -1.1509005351       -1.6035002758
 H          5.7304299289       -2.0432879955       -1.1445074358
 C          5.3856669954        0.0215636793       -1.5935456721
 H          5.9706125328        0.9327455340       -1.7171164349
 H          5.0212448285       -0.2962877888       -2.5734329129
 H          5.9396078525        0.9394677034        2.3708835709
 H          7.0780365544        2.2038956580        1.9049084619
 H          5.8319049518        2.4524742162       -0.2750065305
 H          4.9435500942        2.9173334488        1.1859815424
 O          3.1584864768        1.3698341001        1.1088118328
 C          1.9884155392        0.6343335504        0.9757396777
 O          1.1227502953        0.9133466698        1.8279853840
 H         -1.2249547240        0.3375290995        1.1139762402
 C         -1.3117028427        0.4626169511        0.0461507721
 C         -0.4361491237       -0.2044302311       -0.7977003907
 C         -0.5491859685       -0.0005422434       -2.1695786257
 C         -1.5141250601        0.8472783811       -2.6823818122
 C         -2.3828647682        1.5153518001       -1.8369235155
 C         -2.2692754151        1.3265325498       -0.4664462818
 N         -3.1557671113        2.0034553036        0.4012750524
 S         -4.7641006107        1.5517014235        0.2703414544
 O         -5.2877287066        2.0401908518       -0.9799736406
 O         -5.4101832455        2.0362218656        1.4689322965
 C         -4.7183440066       -0.2308621082        0.2611738757
 C         -4.6043013310       -0.8976650398       -0.9420310425
 C         -4.4731873767       -2.2769854889       -0.9315714388
 C         -4.4578888137       -2.9613432138        0.2737401149
 C         -4.5775051443       -2.2767833710        1.4735085957
 C         -4.7016488777       -0.8970875721        1.4702298465
 H         -4.7991044077       -0.3270513003        2.3804693943
 H         -4.5701273169       -2.8122997901        2.4095072758
 H         -4.3520304147       -4.0347342851        0.2786770859
 H         -4.3799661426       -2.8117224523       -1.8630680251
 H         -4.6253198474       -0.3301623815       -1.8577009770
 H         -2.8668525418        1.9499102278        1.3682555970
 H         -3.1485126579        2.1734462568       -2.2152354741
 H         -1.5906369482        0.9916567550       -3.7494369953
 H          0.1377002201       -0.5100758092       -2.8305045345
 C          0.6417956859       -1.1140105667       -0.2634280057
 H          0.8921767849       -1.8373817211       -1.0507772024
 C          0.2184942509       -1.8714479153        0.9786013806
 C         -0.8520975102       -2.9139060114        0.8626887875
 C          0.5681872199       -3.3220501735        1.1107173781
 H          0.8350357589       -3.6995539172        2.0865042892
 H          1.1177435840       -3.7800053674        0.3015074241
 H         -1.2692869640       -3.0889025130       -0.1172377976
 H         -1.5656624726       -3.0110064881        1.6660838205
 H          0.2468310007       -1.2732961328        1.8806891677
 O          2.9237220920       -1.3211168506       -1.9247761332
