  62
        -98.94672033
 C          1.9885176736        1.4592415883       -0.0919531316
 C          1.7164549420        0.2249867781       -0.7273355719
 C          2.8689861767       -0.6676564478       -0.9129325291
 C          4.0883335686       -0.2608719856       -0.5152110941
 C          5.3361168571       -1.0909912647       -0.5938736994
 C          5.5514523474       -1.8939625698        0.6969977413
 C          4.3126238858       -2.6577769825        1.1651286048
 H          3.5401538074       -1.9412886819        1.4538721497
 H          4.5925250825       -3.2084144029        2.0658162100
 C          3.7367036257       -3.6325032580        0.1284701188
 H          3.5043574843       -4.5758190300        0.6270324648
 H          4.4852210271       -3.8458509152       -0.6354398688
 C          2.4484373922       -3.1539382261       -0.5437728704
 H          1.7325290228       -2.8432197606        0.2218618845
 H          2.0134660016       -4.0000957055       -1.0827308883
 C          2.6096561522       -2.0050224179       -1.5474824847
 H          1.6662431725       -1.8994007220       -2.0916310614
 H          3.3936443639       -2.2507827955       -2.2665355983
 H          5.8464008858       -1.2020870716        1.4894019870
 H          6.3732721725       -2.5937479235        0.5347090401
 H          5.2651261577       -1.7643595901       -1.4458526847
 H          6.1858205167       -0.4222515458       -0.7411785442
 O          4.3162529198        0.9493292087        0.0571703502
 C          3.2745336366        1.8296103872        0.3009018002
 O          3.6147594765        2.8892244523        0.8647035556
 H         -1.8694078130        2.1162396684       -0.2842712813
 C         -1.5329209233        1.6802789189        0.6408595685
 C         -0.2014866998        1.7485707496        1.0177608154
 C          0.1812186270        1.1661574762        2.2245858745
 C         -0.7417441330        0.5226467234        3.0249454007
 C         -2.0672672045        0.4374867993        2.6340747661
 C         -2.4611645030        1.0190280841        1.4360071199
 N         -3.8064170356        0.9707788685        1.0237373816
 S         -4.1996701184        0.3117652755       -0.4656293109
 O         -3.5626246581        1.0586278090       -1.5177996886
 O         -5.6467610406        0.2921328167       -0.4819960086
 C         -3.5883267467       -1.3627524414       -0.3960151846
 C         -2.2460822016       -1.6098376329       -0.6017371743
 C         -1.7857891084       -2.9124973015       -0.4807528969
 C         -2.6624221045       -3.9359035946       -0.1574556254
 C         -4.0079357988       -3.6685512684        0.0474310986
 C         -4.4759994273       -2.3701833871       -0.0679340570
 H         -5.5137388626       -2.1160951135        0.0770135327
 H         -4.6900493596       -4.4653782760        0.2969757984
 H         -2.2945866792       -4.9458590731       -0.0662464193
 H         -0.7375004297       -3.1087130910       -0.6414070356
 H         -1.5717465840       -0.8062642994       -0.8522428730
 H         -4.4300573307        0.5934933593        1.7239315394
 H         -2.7905078291       -0.0707215212        3.2538795221
 H         -0.4278709380        0.0771812703        3.9569087522
 H          1.2192187897        1.2272636788        2.5239967122
 C          0.8537276525        2.4306470952        0.1810712057
 H          1.2877502190        3.2476157689        0.7759515975
 C          0.3253684381        3.0044257186       -1.1165075992
 C         -0.3256195993        4.3536221456       -1.1294460807
 C          1.0323537890        4.1703022413       -1.7363444744
 H          1.1272368392        4.2039941376       -2.8113938964
 H          1.8877877143        4.5682817178       -1.2095703968
 H         -0.3940503134        4.8846537475       -0.1918938592
 H         -1.1672432801        4.5114357990       -1.7872606650
 H         -0.0657270507        2.2464447614       -1.7861261090
 O          0.5706435520       -0.1190846003       -1.1167140357
