  62
        -98.94600693
 C         -1.5760980488       -1.3421352560        0.4629844592
 C         -1.4281855639       -0.1914981437       -0.3501013341
 C         -2.2010707111        0.9839964560        0.0721579012
 C         -2.9451957442        0.9313296078        1.1916946300
 C         -3.7691277933        2.0549430223        1.7601326463
 C         -5.1643271798        2.1833844248        1.1332084693
 C         -5.1889492382        2.7371394365       -0.2920630298
 H         -6.2285012766        2.9782540264       -0.5230601667
 H         -4.6235638530        3.6687960431       -0.3279968036
 C         -4.6582651297        1.7679716376       -1.3578198920
 H         -4.6396528134        0.7542104452       -0.9510031455
 H         -5.3405120769        1.7569625443       -2.2108410242
 C         -3.2682946509        2.1126913536       -1.8928365002
 H         -2.9781572886        1.3426126294       -2.6117594201
 H         -3.3065953372        3.0688402510       -2.4191147166
 C         -2.1777113345        2.1903169072       -0.8162599203
 H         -2.2943970639        3.0999679463       -0.2277629272
 H         -1.2049859531        2.2095448532       -1.3122366434
 H         -5.6474696626        1.2036390065        1.1524374327
 H         -5.7471020765        2.8525987859        1.7705160348
 H         -3.8888475126        1.8453190033        2.8254205360
 H         -3.2315741538        2.9971775305        1.6501149191
 O         -3.0179495543       -0.1801275943        1.9734313346
 C         -2.3572918940       -1.3461117594        1.6171966465
 O         -2.5296083862       -2.2974107272        2.4076709402
 O         -0.6906747398       -0.1451043706       -1.3667472264
 C         -0.8629320933       -2.6257833911        0.0826924429
 C          0.6177912869       -2.3865102103       -0.0869460351
 C          1.3688552752       -2.9914636559       -1.0866493808
 C          2.7256242800       -2.7395526460       -1.1963297983
 C          3.3618798427       -1.8805990258       -0.3197449497
 C          2.6198049697       -1.2695580940        0.6833396599
 C          1.2646920477       -1.5361487966        0.8008263970
 H          0.6924476519       -1.0624213802        1.5896024225
 N          3.2506822319       -0.3871153102        1.5823934550
 S          4.1296918687        0.8927569177        0.9545269156
 O          5.3241238337        0.3806009661        0.3314504606
 O          4.3278900530        1.7915771822        2.0693390430
 C          3.0818229318        1.6563624004       -0.2683008753
 C          3.1203538786        1.2127866444       -1.5745943899
 C          2.2716484716        1.7935472030       -2.5026944241
 C          1.4096259672        2.8057404724       -2.1132835360
 C          1.3844350702        3.2416516253       -0.7973590303
 C          2.2218146596        2.6569869623        0.1377519068
 H          2.2358354237        2.9696257193        1.1699063021
 H          0.7124051283        4.0297249589       -0.4966151811
 H          0.7530193986        3.2577771438       -2.8403572040
 H          2.2827987639        1.4521037759       -3.5250191868
 H          3.8123798515        0.4326970188       -1.8447377837
 H          2.6334711523       -0.0489707498        2.3067025606
 H          4.4158725104       -1.6676874222       -0.3968106508
 H          3.2959559407       -3.2179402270       -1.9780230936
 H          0.8911322479       -3.6595716950       -1.7842619862
 H         -1.0044640429       -3.3183268047        0.9259028610
 C         -1.5139013546       -3.2210729362       -1.1505768457
 C         -1.5831076980       -4.7063369558       -1.3358034917
 C         -2.8229460097       -3.9343002124       -1.0011104958
 H         -3.5740629604       -3.8027858277       -1.7655592785
 H         -3.2275443631       -4.0198833438       -0.0026827796
 H         -1.4863070040       -5.1076793344       -2.3334265933
 H         -1.1532268074       -5.3285564888       -0.5653449321
 H         -1.3806927380       -2.5995880250       -2.0288625037
