  62
        -98.94421759
 C          1.5500200097        1.4567385767        0.4399865931
 C          1.7079804174        0.2185215878        1.1111622606
 C          2.8557766999       -0.5946916327        0.6955306087
 C          3.6637474165       -0.1558971895       -0.2867373772
 C          4.8887991949       -0.8586001262       -0.8065859824
 C          4.5948457264       -1.9308028421       -1.8647968168
 C          3.9519942022       -3.2118058126       -1.3319817639
 H          4.0025851756       -3.9518716506       -2.1330377654
 H          4.5428106648       -3.5932253206       -0.4986311578
 C          2.4881339608       -3.0518830701       -0.8981892505
 H          2.0780118952       -2.1347355669       -1.3275960016
 H          1.8979343882       -3.8806873439       -1.2944993256
 C          2.2729373300       -3.0280623905        0.6146258814
 H          2.5530930262       -3.9941223033        1.0397153520
 H          1.2092529901       -2.8670796692        0.8025129860
 C          3.0502558354       -1.9291826386        1.3493984022
 H          4.1101412537       -2.1790748551        1.3942172632
 H          2.6631791743       -1.8586394698        2.3687210869
 H          5.5459293080       -2.1941756778       -2.3334810184
 H          3.9546805735       -1.4945042937       -2.6350842518
 H          5.5171684110       -0.0897711343       -1.2613734496
 H          5.4347660740       -1.3058760121        0.0245676582
 O          3.4617885268        1.0260612968       -0.9260793873
 C          2.3987247684        1.8547325537       -0.5933899950
 O          2.3364583787        2.8936748149       -1.2770452245
 O          0.9336977721       -0.1819272150        2.0206998938
 C          0.3871752097        2.3479203605        0.8436940152
 C         -0.6368708288        2.3466396444       -0.2640430819
 C         -0.7950590527        3.4000684619       -1.1552775849
 C         -1.7274593495        3.3173057465       -2.1743319281
 C         -2.5344474903        2.2024633986       -2.3062440353
 C         -2.3882639167        1.1443835837       -1.4155655487
 C         -1.4332342770        1.2167121429       -0.4143928267
 H         -1.3112186895        0.3878176804        0.2684980442
 N         -3.1948849239        0.0002663842       -1.5199422904
 S         -3.8501355361       -0.6741642407       -0.1311032901
 O         -5.0779063096       -1.2983859044       -0.5802500151
 O         -3.9849177060        0.3060801397        0.9202001359
 C         -2.7162826072       -1.9605329602        0.3402785717
 C         -2.4404447762       -2.9500186316       -0.5832382421
 C         -1.6180433877       -4.0005954978       -0.2123111767
 C         -1.0922782646       -4.0463366153        1.0705978306
 C         -1.3738125351       -3.0419664857        1.9838383571
 C         -2.1940558575       -1.9870329024        1.6172008743
 H         -2.4318011207       -1.1848844148        2.2978280584
 H         -0.9527068248       -3.0682151613        2.9759507875
 H         -0.4585074203       -4.8694709942        1.3612603801
 H         -1.3910847648       -4.7814324144       -0.9202486087
 H         -2.8790679382       -2.8850837106       -1.5650562508
 H         -3.8801704798        0.0405625922       -2.2609398328
 H         -3.2726909279        2.1467539450       -3.0922332205
 H         -1.8354371446        4.1379830841       -2.8674421470
 H         -0.1754449893        4.2762443478       -1.0625815755
 H         -0.0660933983        1.8552862022        1.7156335108
 C          0.8473130814        3.7306075770        1.2533186166
 C         -0.0811937918        4.6107120696        2.0336917655
 C          1.1201567358        4.0113737244        2.6992834193
 H          1.9472633265        4.6582481761        2.9507567798
 H          0.9664557422        3.2062458664        3.4029151470
 H         -0.0812719407        5.6707382650        1.8307375460
 H         -1.0528992224        4.2105624200        2.2825715440
 H          1.5014725274        4.1977159953        0.5273646539
