  62
        -98.94358855
 C          2.0038913856        1.3567484617       -0.1572836530
 C          1.9046845518        0.0266345554       -0.6320527307
 C          3.1745837814       -0.7057121919       -0.7456908362
 C          4.3242346838       -0.0911036676       -0.4127310563
 C          5.6769286952       -0.7410603885       -0.4221608444
 C          6.0010691197       -1.3679970187        0.9413237160
 C          4.8824926644       -2.2473570650        1.5008754881
 H          5.2353150288       -2.6564352444        2.4502060237
 H          4.0145664817       -1.6225116795        1.7243684742
 C          4.4539544809       -3.3962170748        0.5772349419
 H          4.3569471703       -4.3063076847        1.1730577469
 H          5.2279040348       -3.5792123311       -0.1691401262
 C          3.1129518656       -3.1784792304       -0.1260711373
 H          2.8064954041       -4.1278977691       -0.5732634596
 H          2.3531392907       -2.9036694477        0.6102948011
 C          3.1106899428       -2.1235737439       -1.2394054672
 H          3.9231558161       -2.3263200195       -1.9399410411
 H          2.1626952815       -2.2105042989       -1.7778722818
 H          6.1929861544       -0.5636598040        1.6554638732
 H          6.9141919386       -1.9577316057        0.8418860943
 H          5.7039402420       -1.5024623083       -1.1992271624
 H          6.4241249323        0.0217489251       -0.6475710787
 O          4.3796331388        1.1934656679        0.0242061503
 C          3.2245351460        1.9451256376        0.1705756522
 O          3.4123181296        3.1032662766        0.5965292197
 H         -1.9875204363        2.0186328944       -0.2250667654
 C         -1.6063524715        1.5199785412        0.6527793376
 C         -0.2430897509        1.5131520088        0.9082511068
 C          0.2099567974        0.8705589579        2.0570239508
 C         -0.6713508550        0.2334184679        2.9097057709
 C         -2.0302220514        0.2356105433        2.6468544794
 C         -2.4957262443        0.8860974488        1.5128929229
 N         -3.8824517785        0.9033169416        1.2514035534
 S         -4.6295674676       -0.5511303601        0.8854823125
 O         -6.0238122196       -0.2307256594        0.6810161709
 O         -4.3353363250       -1.5029080869        1.9251079313
 C         -3.8986656428       -1.0614054651       -0.6592715035
 C         -2.5889224730       -1.4980525292       -0.6623093393
 C         -1.9922396371       -1.8172476073       -1.8714631797
 C         -2.7151538829       -1.7029560584       -3.0488912789
 C         -4.0328709936       -1.2702951674       -3.0287531728
 C         -4.6301273584       -0.9360910868       -1.8242857283
 H         -5.6480000120       -0.5861255429       -1.7614506335
 H         -4.5914295617       -1.1847209123       -3.9471635654
 H         -2.2453585703       -1.9504575408       -3.9880555426
 H         -0.9577661183       -2.1193011277       -1.8795559320
 H         -2.0451828628       -1.5765692978        0.2650496997
 H         -4.1486136713        1.5885510848        0.5574453583
 H         -2.7300031374       -0.2700280795        3.2916760707
 H         -0.2985199093       -0.2671739893        3.7909442901
 H          1.2704991239        0.8703941997        2.2709219397
 C          0.7493039405        2.1954775231       -0.0021950428
 H          1.0663423478        3.1312934315        0.4818002936
 C          0.1806330751        2.5221762479       -1.3689782764
 C         -0.5306889066        3.8194102172       -1.6085935357
 C          0.8352785944        3.5960808162       -2.1828456358
 H          0.9320119792        3.4508658032       -3.2482210387
 H          1.6713601860        4.1143054866       -1.7356480453
 H         -1.3719827618        3.8304424992       -2.2856228455
 H         -0.6226736351        4.5027998119       -0.7776826671
 H         -0.1691134633        1.6398246279       -1.8932285478
 O          0.8173027724       -0.5215967820       -0.9428712650
