  62
        -98.94176951
 C         -2.0605490439       -1.5205267065        0.0645596075
 C         -2.3329582940       -0.6020203257       -0.9795382962
 C         -3.6639938293        0.0228348509       -0.9490197246
 C         -4.5346949860       -0.2845373182        0.0280578080
 C         -5.9288578268        0.2600264270        0.1808578482
 C         -5.9935359764        1.6183915695        0.8923513991
 C         -5.4977923952        2.8081867812        0.0694416807
 H         -6.0034147620        2.8163370264       -0.8967300793
 H         -5.7978406503        3.7130835054        0.6016472213
 C         -3.9778060056        2.8429988247       -0.1429768141
 H         -3.4927609443        2.1836563696        0.5810057747
 H         -3.6062423949        3.8525992547        0.0475661182
 C         -3.5266619600        2.4524111869       -1.5504404202
 H         -2.4345076893        2.4837101504       -1.5806302484
 H         -3.9022384988        3.1826374880       -2.2707726874
 C         -3.9747276172        1.0532312795       -1.9931011763
 H         -5.0404243723        1.0550816348       -2.2203604355
 H         -3.4233325929        0.7878343924       -2.8984722228
 H         -5.4215748881        1.5540349357        1.8209944253
 H         -7.0379948693        1.7980405986        1.1573939791
 H         -6.4823100076       -0.4675954515        0.7783350779
 H         -6.4024169553        0.3378069784       -0.7982186732
 O         -4.2374365848       -1.1723178142        1.0133022839
 C         -3.0020524739       -1.7947650270        1.0619329081
 O         -2.8637577638       -2.5741182188        2.0260520398
 O         -1.5262923875       -0.3002270004       -1.8969567904
 C         -0.7478014665       -2.2781835699        0.1905748109
 C          0.3053391355       -1.4515169675        0.8823999896
 C          1.0263224033       -1.9654587465        1.9536591011
 C          2.0013009750       -1.2056411303        2.5771054455
 C          2.2801193861        0.0773621895        2.1423833794
 C          1.5676599482        0.5985164950        1.0695282688
 C          0.5898455942       -0.1640969325        0.4471296696
 H          0.0436401493        0.2436286629       -0.3905588767
 N          1.8540451238        1.8965259837        0.6087730336
 S          3.4642849495        2.2693504597        0.3359490908
 O          4.1026384552        2.5831913053        1.5900349346
 O          3.4518030708        3.3268362542       -0.6494413580
 C          4.1676462615        0.7790850051       -0.3465394675
 C          5.0843669346        0.0493501095        0.3824774901
 C          5.5725717547       -1.1339656478       -0.1483891628
 C          5.1360573756       -1.5656476904       -1.3910993574
 C          4.2191968563       -0.8181037772       -2.1141946143
 C          3.7261135700        0.3647290035       -1.5876958850
 H          3.0121818061        0.9695710357       -2.1245487336
 H          3.8791681740       -1.1559465642       -3.0798368577
 H          5.5105651516       -2.4901038125       -1.8009776537
 H          6.2873716524       -1.7162437308        0.4102658357
 H          5.3975872410        0.4215342356        1.3440360767
 H          1.2832552423        2.1774168600       -0.1752816739
 H          3.0305672611        0.6865823132        2.6193638021
 H          2.5491950381       -1.6156353646        3.4115295008
 H          0.8076132880       -2.9627817463        2.3060948540
 H         -0.9768635977       -3.1335692544        0.8450487751
 C         -0.2708117100       -2.8484575378       -1.1400842416
 C          0.9163960374       -2.3356652401       -1.8921944106
 C          0.9891296534       -3.6609605250       -1.1997010390
 H          0.9957424811       -4.5613901836       -1.7946888386
 H          1.5830351829       -3.7183555008       -0.3000149035
 H          0.8484919112       -2.3109235816       -2.9689981472
 H          1.4731968191       -1.5129996443       -1.4724893019
 H         -1.1033278704       -3.1987754984       -1.7424641507
