  62
        -98.95003314
 C         -1.9075834865       -1.0349809826        0.0286792808
 C         -1.3408449109       -1.8233529736       -1.0030121562
 C         -0.2681832575       -2.7385758584       -0.5953825919
 C          0.0845227672       -2.8202265698        0.7005124661
 C          1.1166368344       -3.7472876557        1.2839314196
 C          2.5596651051       -3.2323653286        1.1966934259
 C          3.1716384503       -3.2536147947       -0.2040077838
 H          4.2432878051       -3.0793665927       -0.0909916927
 H          3.0463150216       -4.2436595627       -0.6437300951
 C          2.5992043495       -2.1912511868       -1.1515407863
 H          3.4116167332       -1.6851116764       -1.6790084197
 H          2.0835438099       -1.4206087593       -0.5744439464
 C          1.6406191074       -2.7234563425       -2.2168541185
 H          1.2600669756       -1.8624304055       -2.7739022680
 H          2.1842391238       -3.3646032092       -2.9151662795
 C          0.4439820694       -3.5095034558       -1.6644194294
 H         -0.2623967052       -3.6757756191       -2.4818508128
 H          0.7738015419       -4.4767839428       -1.2843906200
 H          3.1692578712       -3.8646728845        1.8460409149
 H          2.5964888046       -2.2135118386        1.5886289560
 H          0.8591923156       -3.8703999440        2.3381113072
 H          1.0478935834       -4.7194619485        0.7946489051
 O         -0.5064819328       -2.0686956986        1.6662577674
 C         -1.4787818005       -1.1264822274        1.3526142527
 O         -1.8723371784       -0.4603990927        2.3280440966
 H         -0.7802480108        0.9883184751       -1.4522410601
 C         -1.2040278316        1.6946459993       -0.7525985803
 C         -2.3805242879        1.3721930975       -0.0851851927
 C         -2.9281819673        2.3040082101        0.7859211056
 C         -2.2929210403        3.5156810705        0.9984737773
 C         -1.1003616655        3.8143223072        0.3657702640
 C         -0.5483192847        2.8929099612       -0.5186228001
 N          0.6554890361        3.1754813825       -1.1867252901
 S          1.8644634128        2.0356477609       -1.3586875158
 O          2.9685041670        2.7732575438       -1.9327746796
 O          1.3837674960        0.9126404334       -2.1189124859
 C          2.2972479881        1.5369192698        0.2986997081
 C          1.4488179224        0.7010933010        0.9966974489
 C          1.7687478250        0.3513894289        2.2992340745
 C          2.9340112477        0.8320159973        2.8767304506
 C          3.7802889790        1.6661051098        2.1615342414
 C          3.4578377251        2.0288481704        0.8637742456
 H          4.0846522357        2.6748978171        0.2707642565
 H          4.6867713846        2.0362148360        2.6126504853
 H          3.1804119822        0.5519776050        3.8887777295
 H          1.0952839477       -0.2896218924        2.8478702164
 H          0.5496391554        0.3335036596        0.5264467346
 H          1.0545369125        4.0749533884       -0.9598396624
 H         -0.5991473766        4.7526162669        0.5486756596
 H         -2.7261594517        4.2320238774        1.6797675676
 H         -3.8443033057        2.0788594591        1.3058884549
 C         -2.9609740068        0.0001766805       -0.3312684260
 H         -3.1223193646       -0.1137370804       -1.4134189155
 C         -4.2653581702       -0.2594292317        0.3894407777
 C         -5.5484354521        0.2682955585       -0.1772635456
 C         -5.2579624918       -1.2010108424       -0.2210511695
 H         -5.8132240696       -1.8580337162        0.4313703060
 H         -5.0021850421       -1.6456520613       -1.1719470497
 H         -6.3081794134        0.6197609486        0.5041651666
 H         -5.4945079886        0.8227941136       -1.1020150394
 H         -4.1525751086       -0.2854026842        1.4669326420
 O         -1.7214741957       -1.7702752028       -2.2035166659
