  62
        -98.93815153
 C          1.1515588156        1.4901550178       -0.3001125355
 C          2.3288812707        1.4841074985        0.4863132287
 C          3.2475247534        0.3452429477        0.3059713624
 C          2.9267333213       -0.6129059780       -0.5818238251
 C          3.6929912432       -1.8621476127       -0.9366395115
 C          5.2063675489       -1.6986531441       -1.1486741279
 C          6.0462429593       -2.3476683967       -0.0473938173
 H          5.5865806365       -3.2996461853        0.2262640460
 H          7.0379263981       -2.5691970877       -0.4481756333
 C          6.2358401407       -1.4985337096        1.2085403417
 H          6.9156051102       -0.6728213400        0.9867109165
 H          6.7222100106       -2.1248290794        1.9602437483
 C          4.9535104615       -0.9184567065        1.8093829998
 H          4.1504288266       -1.6535408807        1.7804903260
 H          5.1487011362       -0.7022279556        2.8619819008
 C          4.4967559126        0.3881368131        1.1433867251
 H          4.2866331921        1.1371996272        1.9132023524
 H          5.3099241944        0.8018838594        0.5395022265
 H          5.4654386133       -2.1760339137       -2.0950958119
 H          5.4563802104       -0.6429242808       -1.2420630665
 H          3.2288790406       -2.2292699083       -1.8545389896
 H          3.5103448897       -2.6147758974       -0.1658671500
 O          1.7745024255       -0.5737482147       -1.3071313858
 C          0.8599110493        0.4572789787       -1.1908425567
 O         -0.1345297786        0.3341040595       -1.9302162159
 O          2.6053384095        2.3975992402        1.3096945913
 C          0.1759964985        2.6413228815       -0.1109642591
 C         -1.0378134265        2.0936766135        0.5960403357
 C         -1.0570559228        2.0325119006        1.9862662176
 C         -2.1153054928        1.4435818529        2.6539280985
 C         -3.1663110736        0.8825809254        1.9487509615
 C         -3.1470636827        0.9269133672        0.5614095965
 C         -2.1036161659        1.5514394374       -0.1063429891
 H         -2.1004412091        1.5688318257       -1.1843185097
 N         -4.1847578227        0.3057820431       -0.1699029301
 S         -4.3067311561       -1.3537807665        0.0361062289
 O         -5.1328714676       -1.8191230190       -1.0549756382
 O         -4.8035947050       -1.6186156935        1.3634479500
 C         -2.6492472020       -1.9923794277       -0.1270622275
 C         -1.8366298715       -2.0543521605        0.9869101403
 C         -0.5384523787       -2.5151181673        0.8416591633
 C         -0.0800053938       -2.9087595022       -0.4054718453
 C         -0.9073284605       -2.8369385648       -1.5143722493
 C         -2.2027497552       -2.3679709784       -1.3773859695
 H         -2.8764873958       -2.2974377365       -2.2163002225
 H         -0.5422053744       -3.1317618454       -2.4848469933
 H          0.9306895315       -3.2684553064       -0.5168778167
 H          0.1114003627       -2.5610477138        1.7015365031
 H         -2.2302681042       -1.7504434380        1.9430181908
 H         -4.1273771469        0.5035011417       -1.1598873844
 H         -3.9852770251        0.3909464791        2.4486108439
 H         -2.1193168767        1.4115156377        3.7329844205
 H         -0.2214646833        2.4393644870        2.5381003779
 H          0.6805878886        3.3437267512        0.5651288276
 C         -0.1417477067        3.3559537009       -1.4074105266
 C         -0.8225905311        4.6900972309       -1.3558245681
 C          0.6160918649        4.5979679014       -1.7644444664
 H          0.8706382130        4.7655649596       -2.8002979331
 H          1.3678933774        4.9429296923       -1.0698390797
 H         -1.5582342755        4.9246741400       -2.1099128325
 H         -1.0480003099        5.0959104892       -0.3811964313
 H         -0.3990166587        2.6875952111       -2.2195070614
