  62
        -98.94270111
 C          2.4153635806        0.9216127892        0.5085847815
 C          2.4556982707       -0.1222128201       -0.4475330092
 C          3.4513859806       -1.1738647603       -0.1999233297
 C          4.2318296203       -1.1183990712        0.8939618005
 C          5.2700465901       -2.1305651216        1.2957793001
 C          6.6315901703       -1.9336606312        0.6152845806
 C          6.6781918207       -2.3076212001       -0.8667639797
 H          7.7301015408       -2.3302760099       -1.1583657494
 H          6.2823122106       -3.3150436100       -0.9987527505
 C          5.9316283210       -1.3339507394       -1.7892815592
 H          5.7557801109       -0.3939573097       -1.2611317185
 H          6.5554945313       -1.1019286988       -2.6554545388
 C          4.5977727011       -1.8598089889       -2.3195596799
 H          4.1393236613       -1.0773360584       -2.9296420295
 H          4.7741204412       -2.7263015984       -2.9608348205
 C          3.5964632108       -2.2563801296       -1.2268127505
 H          3.9039918106       -3.1896329600       -0.7557667511
 H          2.6194126209       -2.4040302992       -1.6933660009
 H          6.9361077204       -0.8917302713        0.7379864614
 H          7.3546080201       -2.5558066916        1.1478173503
 H          5.4057639398       -2.0241676724        2.3741657202
 H          4.9007937501       -3.1355677814        1.0896532792
 O          4.1462224501       -0.1094236619        1.8012987412
 C          3.2499016303        0.9307352983        1.6293177818
 O          3.2886623201        1.7929662577        2.5299985124
 O          1.7098064010       -0.1872625693       -1.4594214495
 C          1.4245534207        2.0696565894        0.3898695321
 C          0.0427168506        1.5281586193        0.6667582113
 C         -0.3801983698        1.3950277783        1.9865555811
 C         -1.6199639899        0.8590825282        2.2790330904
 C         -2.4595298997        0.4329978290        1.2640710099
 C         -2.0460924393        0.5583364099       -0.0549345899
 C         -0.8066997992        1.1149906401       -0.3472887992
 H         -0.4910085789        1.1930926808       -1.3755000390
 N         -2.8721947591        0.0964838808       -1.0900690205
 S         -4.5091953591        0.4405521709       -1.0705860507
 O         -4.9350339087        0.3299682119       -2.4486796109
 O         -4.7805293491        1.6991703004       -0.4151700198
 C         -5.2185614194       -0.8989745398       -0.1355175318
 C         -4.9136299394       -2.1917961695       -0.5136845927
 C         -5.4640048997       -3.2450288400        0.1989476964
 C         -6.3081851099       -2.9896282507        1.2694295063
 C         -6.6083644999       -1.6861195310        1.6338019072
 C         -6.0598767897       -0.6280488705        0.9256952781
 H         -6.2596888197        0.4013870793        1.1775056788
 H         -7.2653527401       -1.4896499615        2.4658234272
 H         -6.7341707301       -3.8115921411        1.8228557256
 H         -5.2321463997       -4.2600029198       -0.0813669043
 H         -4.2544815292       -2.3491759289       -1.3511893427
 H         -2.4740390488        0.1973279414       -2.0117705403
 H         -3.4251313898        0.0089352389        1.4858429893
 H         -1.9356205502        0.7658549675        3.3071127403
 H          0.2835119000        1.7098602377        2.7801000515
 H          1.6792386905        2.7702345088        1.1962341827
 C          1.5451871611        2.7928431303       -0.9352620873
 C          0.8941844912        4.1325130405       -1.0979091265
 C          2.3872027412        4.0286199503       -1.0204942162
 H          2.9635510114        4.1984899610       -1.9176600259
 H          2.8767216510        4.3640493496       -0.1177284058
 H          0.4431254915        4.3769557912       -2.0477072565
 H          0.3681974710        4.5369745599       -0.2461111164
 H          1.5586228513        2.1291704710       -1.7904611578
