  62
        -98.93924412
 C          1.8327387649       -0.5088227128        0.0207931965
 C          2.9196443135       -0.6025147509       -0.8866464272
 C          4.0990347091        0.2369476048       -0.6179364336
 C          4.0985254099        1.0441849655        0.4588351414
 C          5.1242390807        2.0360028597        0.9664497905
 C          6.5454723913        2.0423506769        0.4098607536
 C          7.3787434556        0.8129500812        0.7714062576
 H          8.3281509622        0.8736690667        0.2349875876
 H          7.5989580220        0.8462196594        1.8414666715
 C          6.7271768737       -0.5361061803        0.4781282964
 H          7.4206120035       -1.3184525415        0.7984969325
 H          5.8215619074       -0.6440421959        1.0784711690
 C          6.3841566030       -0.7919907047       -0.9879783472
 H          7.2756820857       -0.6564739907       -1.6033759944
 H          6.0730877685       -1.8364456908       -1.0756400828
 C          5.2534104507        0.0767602542       -1.5649130140
 H          4.8559533624       -0.4299284520       -2.4491310545
 H          5.6247935075        1.0471818924       -1.8855207666
 H          6.5272666118        2.1893021735       -0.6660662177
 H          7.0439436532        2.9158262620        0.8391922291
 H          5.1649165341        1.8944623715        2.0512940324
 H          4.6839239980        3.0259504264        0.8025652129
 O          3.0274747115        1.1083871349        1.3004156528
 C          1.8823866845        0.3507657307        1.1160317999
 O          1.0170761689        0.5485498544        1.9938097932
 O          2.9047885913       -1.3633495089       -1.8905289380
 C          0.6261977970       -1.3857803798       -0.2688376363
 C         -0.4846591158       -0.6004334011       -0.9239052305
 C         -0.8944484207       -0.8875211826       -2.2203912003
 C         -1.9337967283       -0.1841486615       -2.8049850648
 C         -2.5858824401        0.8168725470       -2.1080787092
 C         -2.1783596886        1.1144466211       -0.8139994818
 C         -1.1409065819        0.4052565528       -0.2280791593
 H         -0.8245285558        0.6477312130        0.7755188607
 N         -2.8489407717        2.1224421675       -0.0890168688
 S         -4.4933894595        1.8673558960        0.1222215022
 O         -5.1866194931        2.2207501810       -1.0912481425
 O         -4.8596863062        2.6169343869        1.3027677444
 C         -4.6301151478        0.1133630547        0.4149592349
 C         -5.0819747172       -0.7189742118       -0.5886465767
 C         -5.0998149040       -2.0864366886       -0.3657949965
 C         -4.6641912195       -2.5946373125        0.8478387800
 C         -4.2156392375       -1.7445447043        1.8471217842
 C         -4.1926025960       -0.3769844300        1.6292234104
 H         -3.8519058503        0.3139664712        2.3840811767
 H         -3.8792569512       -2.1403159219        2.7922327800
 H         -4.6746001711       -3.6598746774        1.0171791319
 H         -5.4486184524       -2.7505307648       -1.1399470582
 H         -5.4130783565       -0.2823161181       -1.5163440369
 H         -2.4125715331        2.3141375541        0.8021328896
 H         -3.4021516818        1.3721034040       -2.5413681453
 H         -2.2399534631       -0.4181215907       -3.8130904336
 H         -0.3841815991       -1.6617850972       -2.7743318392
 H          0.9826341715       -2.1278885566       -0.9953431487
 C          0.1041518567       -2.1191122622        0.9523069712
 C         -0.7741255352       -3.3168116828        0.7554797316
 C          0.6237712006       -3.4879834044        1.2680938994
 H          0.7676130136       -3.7568146807        2.3038800796
 H          1.3645396586       -3.9076537556        0.6031121563
 H         -1.5957659919       -3.4682397912        1.4376528023
 H         -0.9827785741       -3.6203448062       -0.2589203141
 H         -0.1129311942       -1.4658284221        1.7870184146
