  62
        -98.94331294
 C         -2.6035425335        0.0023824520        0.0950773598
 C         -2.4439733227        1.0770968596        1.0007512219
 C         -2.0859494161        2.3720952050        0.4100894218
 C         -1.9091930443        2.4605734570       -0.9208050644
 C         -1.5441291794        3.7181496248       -1.6549461104
 C         -0.0268118850        3.8640945180       -1.8263553707
 C          0.7701126053        3.6692121085       -0.5364593240
 H          0.7078197088        2.6200318845       -0.2375908944
 H          1.8179441822        3.8650473458       -0.7774001216
 C          0.3379833169        4.5715056890        0.6277816593
 H         -0.2217795939        5.4262930517        0.2459094103
 H          1.2343571831        4.9619258193        1.1143834194
 C         -0.4835642101        3.8690418839        1.7105713995
 H          0.0147877561        2.9393970087        1.9978398113
 H         -0.5090632898        4.5156990478        2.5919478948
 C         -1.9361846412        3.5414387984        1.3422661490
 H         -2.4585670361        3.2594933699        2.2612682913
 H         -2.4211306863        4.4287596116        0.9300675357
 H          0.1763696421        4.8553623658       -2.2375169392
 H          0.3148719171        3.1174591606       -2.5474637094
 H         -2.0076468493        3.6803504397       -2.6426542198
 H         -1.9414602378        4.5735015004       -1.1110980661
 O         -2.0361369723        1.3985754342       -1.7567610521
 C         -2.3529591612        0.1400636514       -1.2705295987
 O         -2.4009078024       -0.7498256373       -2.1418293351
 H         -0.4483406331       -0.8693469550        1.3304079808
 C         -0.5130568236       -1.8156889283        0.8066641015
 C         -1.7563918375       -2.2757898962        0.3905307373
 C         -1.8169692670       -3.4907099351       -0.2779826102
 C         -0.6584495881       -4.1967772795       -0.5588152302
 C          0.5809822656       -3.7060695258       -0.1889430174
 C          0.6450014509       -2.5094734422        0.5084352747
 N          1.9205048653       -1.9509613954        0.8304250846
 S          2.3283800956       -0.8345236731       -0.3833938746
 O          1.5207022762        0.3597231256       -0.2530619069
 O          2.2733844988       -1.5207025634       -1.6490096130
 C          4.0242417417       -0.4706423813        0.0318743453
 C          4.3544266012        0.7537891566        0.5784072067
 C          5.6752971714        1.0003362070        0.9204071651
 C          6.6354327144        0.0216078495        0.7151894558
 C          6.2874748654       -1.2039550259        0.1661623634
 C          4.9697512641       -1.4557370108       -0.1793854980
 H          4.6517250629       -2.3881480780       -0.6149289680
 H          7.0372340696       -1.9621442468        0.0076473970
 H          7.6618291970        0.2156540833        0.9837227334
 H          5.9481226217        1.9531894627        1.3447256195
 H          3.5745416061        1.4861592092        0.7153080418
 H          1.8691802429       -1.4241830563        1.6950679018
 H          1.4920978383       -4.2223896237       -0.4422450425
 H         -0.7226277678       -5.1318780451       -1.0942155349
 H         -2.7703411659       -3.8737766784       -0.6037466277
 C         -2.9409542071       -1.3761133522        0.6412090573
 H         -3.0526524392       -1.2418152001        1.7273962687
 C         -4.2424991644       -1.8955194980        0.0727402929
 C         -5.0385012871       -2.9119778837        0.8342942533
 C         -5.5306283934       -1.5008045758        0.7286257654
 H         -6.3850985263       -1.2957345258        0.1016092170
 H         -5.4690459694       -0.8687553749        1.6024861671
 H         -5.5595458547       -3.6782422969        0.2808241226
 H         -4.6466866377       -3.2420338783        1.7843892191
 H         -4.2295582519       -1.9566653542       -1.0094061053
 O         -2.5995854229        0.9579876320        2.2478301321
