  62
        -98.94398736
 C          1.6904661457        1.3187181781        0.3156876954
 C          1.3638792521        0.2677839583       -0.5694543482
 C          1.9323407162       -1.0549218685       -0.2647966247
 C          2.6938216365       -1.2078822630        0.8342340782
 C          3.3383291720       -2.4404361961        1.4336049989
 C          3.4997034982       -3.7172403883        0.6124314107
 C          4.4648508108       -3.6041903859       -0.5666455707
 H          4.4368555844       -4.5455187005       -1.1198373577
 H          5.4776019680       -3.4767891961       -0.1762827888
 C          4.1912444288       -2.4525673521       -1.5304236614
 H          4.9375788377       -2.5003160956       -2.3279231693
 H          4.3321632952       -1.5010980050       -1.0136096104
 C          2.8103016766       -2.4628601717       -2.1833032367
 H          2.6336501216       -3.4317153162       -2.6539445517
 H          2.8149511880       -1.7036727943       -2.9695762671
 C          1.6288852230       -2.1491036059       -1.2469870968
 H          1.2804756291       -3.0385475327       -0.7260939408
 H          0.7977898014       -1.7885091221       -1.8599300959
 H          2.5291707957       -4.0724036278        0.2783207545
 H          3.8963887596       -4.4750637627        1.2938120323
 H          4.3211407513       -2.1182503432        1.7929723055
 H          2.7444705969       -2.6753774118        2.3246486449
 O          2.9695386134       -0.1645000708        1.6718013709
 C          2.4735247142        1.1067194920        1.4463376044
 O          2.7979702385        1.9492989224        2.3097680064
 H         -0.4734842896        1.2018415214        1.6305694745
 C         -1.0475740602        1.7632937246        0.9074968250
 C         -0.3986652548        2.6090001026        0.0167862900
 C         -1.1665085572        3.3281561085       -0.8908160197
 C         -2.5423127097        3.1767787229       -0.9213800713
 C         -3.1774376417        2.2924762562       -0.0686036249
 C         -2.4186034328        1.5775067454        0.8505592659
 N         -3.0092040756        0.6455930445        1.7306614463
 S         -2.5518883902       -0.9587408729        1.5558811971
 O         -3.3523382859       -1.6817374124        2.5216846746
 O         -1.1235713884       -1.0856203144        1.6885058245
 C         -3.0882110895       -1.3899077557       -0.0906573620
 C         -2.3401053615       -0.9831857144       -1.1771512642
 C         -2.8118862990       -1.2629111388       -2.4510628459
 C         -4.0127845832       -1.9347889068       -2.6170200210
 C         -4.7522507985       -2.3351988892       -1.5140574721
 C         -4.2901050545       -2.0563423942       -0.2383886432
 H         -4.8280300774       -2.3494245683        0.6488067587
 H         -5.6854484999       -2.8592603656       -1.6437872088
 H         -4.3728222637       -2.1475579784       -3.6112567532
 H         -2.2304970471       -0.9469073584       -3.3024635584
 H         -1.4057725941       -0.4637845564       -1.0292732123
 H         -4.0190900429        0.6957554593        1.7542194195
 H         -4.2471767693        2.1531030569       -0.1114422258
 H         -3.1254330498        3.7409045637       -1.6330398279
 H         -0.6859964219        4.0028756684       -1.5803363206
 C          1.1069512044        2.7014866735        0.0904907675
 H          1.3749743224        3.2947429215        0.9775202582
 C          1.7283741263        3.3416268060       -1.1343614245
 C          1.9038343063        4.8280249635       -1.2083129692
 C          3.0965599440        3.9410009864       -1.0193259191
 H          3.7856733752        3.8164497691       -1.8410610523
 H          3.5676410157        3.9120141406       -0.0472087184
 H          1.5723321917        5.4141539624       -0.3644906277
 H          1.7781601036        5.3156352212       -2.1632779471
 H          1.4921284587        2.8055579689       -2.0463655815
 O          0.6147055937        0.4231180404       -1.5706114512
