  62
        -98.93849890
 C         -1.7923226576       -1.2946930351       -0.0625794218
 C         -2.9647692033       -0.8540283044        0.5927494113
 C         -3.7014050377        0.2476581207       -0.0501113123
 C         -3.2275299593        0.7803306066       -1.1896901663
 C         -3.8271033527        1.8760669205       -2.0355494193
 C         -4.4209124686        3.0907509765       -1.3099304847
 C         -3.7060871197        3.4831169096       -0.0084909109
 H         -2.7606080933        2.9442030174        0.0775088264
 H         -3.4696392175        4.5484482785       -0.0396114638
 C         -4.5547733317        3.2272414359        1.2393881986
 H         -5.5776206890        3.5535661606        1.0392383089
 H         -4.1707803526        3.8414480422        2.0577177495
 C         -4.5793014160        1.7805160674        1.7317350453
 H         -3.6060025839        1.5160286215        2.1547403033
 H         -5.3069520986        1.7146931733        2.5442064293
 C         -4.9296550512        0.7243313103        0.6707915978
 H         -5.3323191286       -0.1498254716        1.1899307113
 H         -5.6837800224        1.0948385553       -0.0192825691
 H         -5.4730890464        2.9096473448       -1.0951594913
 H         -4.3834215494        3.9261203042       -2.0111759350
 H         -3.0172724331        2.2031413204       -2.6922482662
 H         -4.5964245708        1.4295666710       -2.6723131776
 O         -2.0797794441        0.3376762848       -1.7770593542
 C         -1.3389532858       -0.7088276029       -1.2436459804
 O         -0.3232046566       -1.0022853948       -1.8976436552
 H         -0.1135507883       -0.0580305218        1.3795919750
 C          0.7061511401       -0.7513715606        1.2348480652
 C          0.4351570373       -2.0395034244        0.7919829722
 C          1.5020423244       -2.9121107716        0.6151455543
 C          2.7987732389       -2.5013077118        0.8726795105
 C          3.0640720634       -1.2135596343        1.2995408542
 C          2.0054607822       -0.3307080881        1.4722376979
 N          2.2654292753        0.9920712399        1.8686279269
 S          3.5329573402        1.7895159933        1.1168134903
 O          4.7589320222        1.5056127479        1.8219587926
 O          3.1383107798        3.1814205554        1.0894488940
 C          3.6323260547        1.1273460000       -0.5376478734
 C          4.8412778908        0.6510693390       -1.0034088601
 C          4.9049764670        0.1214944280       -2.2820298896
 C          3.7617113598        0.0664788151       -3.0642302722
 C          2.5549370220        0.5510277837       -2.5837151495
 C          2.4894783157        1.0930493009       -1.3110605657
 H          1.5579167177        1.4700743818       -0.9189168276
 H          1.6553814698        0.4851703438       -3.1741635507
 H          3.8066984545       -0.3597385114       -4.0539859076
 H          5.8417978659       -0.2548354007       -2.6602706375
 H          5.7007195427        0.6981464362       -0.3543487630
 H          1.4439987894        1.5773660976        1.9072418827
 H          4.0678852570       -0.8763796333        1.5019124792
 H          3.6156778610       -3.1921227441        0.7323788293
 H          1.3179575044       -3.9167708259        0.2721829823
 C         -0.9977053005       -2.4392444144        0.5361221503
 H         -1.4727674699       -2.6490756759        1.5068160589
 C         -1.1237832012       -3.6697788072       -0.3401471586
 C         -1.1397549131       -5.0401909761        0.2666121833
 C         -2.3986965065       -4.4561042137       -0.2978061010
 H         -2.7889545825       -4.8577833845       -1.2208680394
 H         -3.1626372241       -4.1221233791        0.3892954542
 H         -0.6665935968       -5.8479329770       -0.2712070036
 H         -1.0552443024       -5.1144148795        1.3403292281
 H         -0.6475620569       -3.5403854703       -1.3056639377
 O         -3.3842473796       -1.3621836248        1.6678907867
