  62
        -98.94268019
 C          2.1417874686        0.8762562301        0.1439230693
 C          2.6800862458        0.0210644283        1.1338139075
 C          3.0405825592       -1.3284494744        0.6860322737
 C          2.8041099766       -1.6937294457       -0.5874193536
 C          3.0775466806       -3.0479806268       -1.1836474014
 C          4.5244804412       -3.2437441855       -1.6570409204
 C          5.5573160806       -3.4039209155       -0.5407293002
 H          5.2287189969       -4.1842457614        0.1463647743
 H          6.4820030418       -3.7485275216       -1.0076195719
 C          5.8490062130       -2.1152971320        0.2407281442
 H          6.9284728988       -1.9962032482        0.3567193979
 H          5.4912298328       -1.2550912449       -0.3297463274
 C          5.2357028782       -2.0700357803        1.6401764311
 H          5.4740778615       -1.1017714172        2.0874285549
 H          5.6834299076       -2.8481540572        2.2620962990
 C          3.7112032383       -2.2418315981        1.6676588159
 H          3.4449203932       -3.2791235538        1.4653005979
 H          3.3533836835       -1.9762925636        2.6655816928
 H          4.8005101793       -2.3987465340       -2.2919649038
 H          4.5447548211       -4.1443038312       -2.2750422000
 H          2.4139738104       -3.1448099984       -2.0459577195
 H          2.8204568752       -3.8238730263       -0.4616778149
 O          2.2509213859       -0.8522168250       -1.5017825212
 C          1.9153959789        0.4512288138       -1.1657099651
 O          1.4324980044        1.1154680049       -2.1027049549
 O          2.8368212815        0.3646250738        2.3370531216
 C          1.7297378824        2.2855425492        0.5302835652
 C          0.2556557573        2.4684597339        0.2635365150
 C         -0.2813971966        3.5771372612       -0.3767860711
 C         -1.6403801581        3.6516907292       -0.6329004883
 C         -2.4918313298        2.6294846983       -0.2564782878
 C         -1.9665062373        1.5253917959        0.3994408883
 C         -0.6095608798        1.4576480268        0.6641192652
 H         -0.2069512789        0.5855875666        1.1670753740
 N         -2.8305772873        0.4636742663        0.7714180451
 S         -3.2825168542       -0.5523712802       -0.5065979063
 O         -2.3870288799       -1.6917411766       -0.5481076710
 O         -3.4042436047        0.2271221754       -1.7108296917
 C         -4.8961993679       -1.0803528918        0.0366823015
 C         -5.0453256519       -2.3029194920        0.6611309696
 C         -6.3023073106       -2.6778081312        1.1097646355
 C         -7.3814238571       -1.8259271531        0.9311393476
 C         -7.2155523825       -0.6006220959        0.3025763291
 C         -5.9617800750       -0.2211333947       -0.1484847770
 H         -5.7864460418        0.7161488851       -0.6499932088
 H         -8.0572380865        0.0585223508        0.1634821593
 H         -8.3581082535       -2.1196787698        1.2820010558
 H         -6.4338881530       -3.6308316749        1.5964837666
 H         -4.1799471502       -2.9364269838        0.7713403387
 H         -2.4024787860       -0.1255289799        1.4747312899
 H         -3.5457022642        2.6648803341       -0.4769272260
 H         -2.0388941489        4.5156342841       -1.1427096429
 H          0.3673411829        4.3779297545       -0.6922533685
 H          1.8972558644        2.3532769683        1.6158853661
 C          2.6046966793        3.3076584170       -0.1637037207
 C          2.8745392742        4.6340495815        0.4799713408
 C          3.9593549244        3.6034115213        0.4045954310
 H          4.7805688999        3.7638969413       -0.2776363594
 H          4.2393678343        3.0853592865        1.3102787872
 H          2.9541563920        5.5061681274       -0.1511698222
 H          2.4227646397        4.8235819312        1.4417620231
 H          2.5114875297        3.2674974163       -1.2433861932
