  62
        -98.94491879
 C          1.9597600936        0.8525013093        0.0715458082
 C          2.2577480927       -0.1126794777        1.0607248370
 C          2.3574195653       -1.5012901106        0.5954096598
 C          2.1303158868       -1.7764561331       -0.7022000422
 C          2.2319669168       -3.1416086453       -1.3182409647
 C          3.6461627785       -3.4099836760       -1.8521449972
 C          4.7546980867       -3.0919476059       -0.8487345449
 H          5.7051379904       -3.3459789142       -1.3226964869
 H          4.7650589117       -2.0160214023       -0.6605937119
 C          4.6336023075       -3.8377133033        0.4874223432
 H          5.6160945460       -4.2270865519        0.7619462520
 H          3.9650369088       -4.6919088696        0.3755749537
 C          4.1562476137       -2.9721819788        1.6549914809
 H          4.7657119937       -2.0670048252        1.7134833885
 H          4.3116951747       -3.5326685191        2.5805979664
 C          2.6803073735       -2.5550416563        1.6174742769
 H          2.0493019824       -3.4349824632        1.4733985623
 H          2.4320363856       -2.1141149704        2.5876802080
 H          3.7093533284       -4.4586900748       -2.1478929686
 H          3.8013608105       -2.7947917664       -2.7413347213
 H          1.9631325601       -3.8888378341       -0.5738145857
 H          1.5203369162       -3.1950685141       -2.1440962943
 O          1.8296332940       -0.8248211904       -1.6220500285
 C          1.7235129375        0.5080925279       -1.2595431794
 O          1.4354826695        1.2760937343       -2.1980268091
 H         -0.4531535009        0.9292224554        0.8900075709
 C         -0.6600060189        1.8867925825        0.4328922101
 C          0.3871701729        2.7556091921        0.1522718435
 C          0.0918130548        3.9869287946       -0.4180672297
 C         -1.2160163743        4.3169858693       -0.7301459129
 C         -2.2483643487        3.4284942724       -0.4946282196
 C         -1.9649138502        2.2015351428        0.0958457554
 N         -2.9887247001        1.2774547609        0.3739949131
 S         -2.6267458917       -0.3671978684        0.2331991964
 O         -2.0072673988       -0.8120875289        1.4576067306
 O         -1.8981761374       -0.6250673354       -0.9886265760
 C         -4.2758697874       -1.0389731151        0.1262198054
 C         -4.8015806781       -1.3577825327       -1.1114140141
 C         -6.0969346429       -1.8462554259       -1.1840152212
 C         -6.8412322812       -2.0033499961       -0.0245263782
 C         -6.2997415552       -1.6794587373        1.2108014770
 C         -5.0050394280       -1.1917904951        1.2905351794
 H         -4.5372697409       -0.9351179983        2.2266286811
 H         -6.8801736642       -1.8056457972        2.1103750207
 H         -7.8488449235       -2.3832360121       -0.0840360511
 H         -6.5187548950       -2.1016475507       -2.1426964380
 H         -4.1815118148       -1.2253143131       -1.9837724431
 H         -3.8537443902        1.5030422576       -0.0991441243
 H         -3.2635777805        3.6776919272       -0.7635164784
 H         -1.4312256433        5.2737173233       -1.1813859727
 H          0.8868351453        4.6822378409       -0.6323407323
 C          1.7889802245        2.3035018797        0.4825127828
 H          1.9074884330        2.3150322814        1.5769560155
 C          2.8663857310        3.1692341779       -0.1363987651
 C          3.3462503672        4.4022538272        0.5679169722
 C          4.2260223805        3.1918785037        0.4931474991
 H          5.0919278161        3.2190355865       -0.1510886538
 H          4.3653335604        2.6021972851        1.3876203102
 H          2.8954819121        4.6412849310        1.5191976580
 H          3.6125171006        5.2638138654       -0.0255547502
 H          2.8148843344        3.1807591432       -1.2194735963
 O          2.4305272456        0.1753497162        2.2776800356
