  62
        -98.94605531
 C         -1.1264097856       -1.3164879198       -0.0134633607
 C         -1.6668827655       -0.4668998123        0.9867662786
 C         -2.4609784786        0.6772164740        0.5218228935
 C         -2.6000326651        0.8803338888       -0.8006557550
 C         -3.3893504326        1.9970090903       -1.4191435181
 C         -4.8391297390        1.5731575633       -1.6912363226
 C         -5.5209882995        0.9118362569       -0.4934456374
 H         -6.5477645504        0.6850307577       -0.7883847460
 H         -5.0282659051       -0.0408627276       -0.2861607225
 C         -5.5308443331        1.7662692896        0.7817830948
 H         -5.3378859703        2.8095181275        0.5295431800
 H         -6.5273362395        1.7189958338        1.2259085829
 C         -4.5423275422        1.3125144538        1.8573603151
 H         -4.6688374185        0.2426574065        2.0408715284
 H         -4.7885227535        1.8352587397        2.7853236847
 C         -3.0600251908        1.5789641500        1.5647322952
 H         -2.9190003712        2.6277662893        1.2949116448
 H         -2.5054880449        1.3804616806        2.4865539304
 H         -5.4053760889        2.4555682653       -1.9949790156
 H         -4.8420333541        0.8648080502       -2.5230658283
 H         -3.3694294721        2.8586689502       -0.7542465156
 H         -2.9127513729        2.2686909995       -2.3631256837
 O         -2.0633334118        0.0550206459       -1.7323351419
 C         -1.3187599315       -1.0631560411       -1.3735885008
 O         -0.9120700125       -1.7191828641       -2.3518656537
 H          1.2025286783       -0.9615614049       -1.2396058511
 C          1.7734827226       -1.3128303451       -0.3944933072
 C          1.1777566294       -2.1068434274        0.5735862375
 C          1.9559015517       -2.5594667994        1.6337828263
 C          3.2945673971       -2.2241151760        1.7202242696
 C          3.8764155860       -1.4050396480        0.7689276593
 C          3.1067919615       -0.9425009623       -0.2911292695
 N          3.6494316557       -0.0754764067       -1.2594921392
 S          2.8347132923        1.3639588909       -1.5350372975
 O          1.6343824860        1.1334978855       -2.2955386703
 O          3.8226695712        2.2263985872       -2.1479107917
 C          2.4397840780        1.9520775724        0.1010454172
 C          3.4217222963        2.6024030757        0.8234016346
 C          3.1527436118        2.9826731051        2.1278369163
 C          1.9192584460        2.6912713471        2.6913571770
 C          0.9443039311        2.0382625531        1.9535478296
 C          1.2036695116        1.6676353880        0.6437026640
 H          0.4634124027        1.1614781180        0.0434533230
 H         -0.0119721164        1.7936791797        2.3880625263
 H          1.7127470957        2.9745546223        3.7112859261
 H          3.9054814270        3.4966560568        2.7033973271
 H          4.3656328844        2.8102877990        0.3459808537
 H          4.6358987221        0.1072732084       -1.1359902119
 H          4.9153722877       -1.1229432183        0.8446746557
 H          3.8871441247       -2.5866836379        2.5458066563
 H          1.5014462878       -3.1695369026        2.3994445199
 C         -0.2855533800       -2.4783036128        0.4822886104
 H         -0.6370537843       -2.6762796778        1.5048573748
 C         -0.4405541496       -3.7499463017       -0.3294762641
 C         -0.2350095697       -5.0790620158        0.3305650531
 C         -1.6120569241       -4.6484186221       -0.0747061792
 H         -2.0828902859       -5.1290949996       -0.9188643330
 H         -2.3041299760       -4.3567999319        0.7020298746
 H          0.2460208806       -5.8622150209       -0.2347295753
 H         -0.0015716744       -5.0896488710        1.3839958005
 H         -0.1138432364       -3.6407864950       -1.3557167636
 O         -1.4880395398       -0.6580008563        2.2196627340
