  62
        -98.93970001
 C         -2.3339800443       -1.0382805796        0.1976158556
 C         -2.6006385171        0.1724040470       -0.4881251636
 C         -3.6520617315        1.0223955929        0.0961646617
 C         -4.2488608107        0.6510713588        1.2423756820
 C         -5.3646795442        1.3966665598        1.9136889781
 C         -6.7334319421        0.8956748230        1.4316672028
 C         -6.8590316515        0.8105343890       -0.0895207706
 H         -6.1788541836        0.0405038728       -0.4609507012
 H         -7.8744584445        0.4770671886       -0.3141134623
 C         -6.5797887367        2.1291471205       -0.8242328572
 H         -7.3485999290        2.2753696358       -1.5858903292
 H         -6.6521100868        2.9644510794       -0.1268532441
 C         -5.2288070270        2.1832161946       -1.5401307673
 H         -5.1134609639        1.2993489095       -2.1728432173
 H         -5.2270259457        3.0570785881       -2.1972532565
 C         -3.9959964667        2.2908700646       -0.6335911084
 H         -4.1265199849        3.1168736784        0.0684979913
 H         -3.1347814205        2.5143486798       -1.2704822746
 H         -6.9021510299       -0.1012823035        1.8451263342
 H         -7.5031852677        1.5618158068        1.8253235965
 H         -5.2869004996        1.2349966935        2.9900397489
 H         -5.2616541308        2.4600998640        1.7070799662
 O         -3.9289341551       -0.4907707308        1.9021348301
 C         -2.9873236886       -1.3654331596        1.3904997667
 O         -2.8188725612       -2.3923148969        2.0772320117
 O         -2.0044333000        0.5471940495       -1.5323073051
 C         -1.3344818073       -2.0738924390       -0.2933211690
 C          0.0677248687       -1.7558526787        0.1570457884
 C          0.8573585829       -2.7185014598        0.7739930662
 C          2.1564635209       -2.4268244325        1.1524548859
 C          2.6933915107       -1.1729572301        0.9217007368
 C          1.9111026201       -0.2032136497        0.3084396802
 C          0.6087995433       -0.4970156007       -0.0659799330
 H          0.0099354663        0.2559427943       -0.5576740533
 N          2.4563598729        1.0748868852        0.0633619001
 S          3.7770904767        1.1067981571       -0.9820436978
 O          3.7949176929        2.4395242294       -1.5438758274
 O          3.7247287182        0.0113952422       -1.9232505211
 C          5.1795621087        0.9138731394        0.0976411102
 C          6.0387738735       -0.1536097667       -0.0745589439
 C          7.1291624886       -0.2790128555        0.7723343087
 C          7.3396430721        0.6602907128        1.7702304806
 C          6.4683121366        1.7279937633        1.9283784817
 C          5.3772417370        1.8600319537        1.0843597877
 H          4.6789944523        2.6759958972        1.1691917729
 H          6.6356436625        2.4564575189        2.7053653565
 H          8.1882891681        0.5602448776        2.4283715116
 H          7.8079588164       -1.1077630319        0.6506133445
 H          5.8312191112       -0.8613316678       -0.8610811601
 H          1.7624768733        1.7366113118       -0.2575702777
 H          3.7048368080       -0.9399311737        1.2123256633
 H          2.7578823303       -3.1842172260        1.6312831966
 H          0.4428003350       -3.6980695716        0.9626532344
 H         -1.6336687967       -3.0127695060        0.1985732386
 C         -1.4250304705       -2.3051194488       -1.7976762803
 C         -0.3488262989       -1.9343834842       -2.7696896143
 C         -0.5954697175       -3.3749814157       -2.4436472435
 H         -1.0526812968       -4.0069740290       -3.1897648885
 H          0.1359218292       -3.8749349931       -1.8266680023
 H         -0.6568996870       -1.5572506168       -3.7333663205
 H          0.5537829488       -1.4726346337       -2.3988663091
 H         -2.4438028230       -2.2017358661       -2.1582139746
