  62
        -98.92732661
 C         -2.0384407749        1.2227260401        0.2656057635
 C         -2.4258975973       -0.0881524407        0.6262457069
 C         -3.8587015834       -0.4224197455        0.4644906317
 C         -4.7039385518        0.5223884856        0.0141001870
 C         -6.1800112566        0.4032239023       -0.2577641185
 C         -6.4823168365       -0.3515168354       -1.5625744643
 C         -5.6507716886       -1.6124124929       -1.7833468302
 H         -5.8773760049       -1.9883987815       -2.7845715716
 H         -4.5910498192       -1.3510191205       -1.7679654687
 C         -5.9085500188       -2.7435977390       -0.7908652337
 H         -6.9615845489       -3.0299421385       -0.8394472632
 H         -5.3157126960       -3.6022691842       -1.1163891812
 C         -5.5529504044       -2.4480703638        0.6676864439
 H         -5.5582610297       -3.4020384996        1.2032778927
 H         -6.3105871575       -1.8272168406        1.1381562968
 C         -4.1689053065       -1.8412458184        0.8770983596
 H         -3.9219095475       -1.8975201171        1.9443358473
 H         -3.4221468873       -2.4693598879        0.3777554278
 H         -7.5436067415       -0.6050949327       -1.5765041165
 H         -6.2860254962        0.3261193839       -2.3969771926
 H         -6.6785792043       -0.0644124391        0.5859682344
 H         -6.5646495327        1.4214614304       -0.3485021426
 O         -4.2826152830        1.7784324832       -0.3122761686
 C         -2.9618802265        2.1579787503       -0.2025653803
 O         -2.7307108130        3.3353797135       -0.5474839843
 H          1.2216757542       -0.2773730714        1.4003181828
 C          1.1498594222       -0.2089409392        0.3313017555
 C          0.3094287663        0.6981346965       -0.2929031568
 C          0.2457358636        0.6740172400       -1.6882881940
 C          0.9901501933       -0.2197718753       -2.4306629183
 C          1.8514956326       -1.1006721767       -1.7993203578
 C          1.9264302041       -1.0874047439       -0.4145433663
 N          2.8150792551       -1.9439655519        0.2737232377
 S          4.0817311513       -1.1862579654        1.0642790109
 O          4.9707958703       -2.2471936455        1.4808769763
 O          3.5671009326       -0.3294156446        2.0990800020
 C          4.8592435976       -0.2056003509       -0.2084240295
 C          4.3351836682        1.0361003174       -0.5094902111
 C          4.8871552914        1.7592575589       -1.5550419580
 C          5.9463630468        1.2318537998       -2.2777645747
 C          6.4628319978       -0.0156504333       -1.9617641154
 C          5.9113669208       -0.7461128492       -0.9214974909
 H          6.2823907928       -1.7182172228       -0.6390207870
 H          7.2884164452       -0.4217243001       -2.5237863730
 H          6.3716944981        1.7982035176       -3.0911715534
 H          4.4840656347        2.7284710603       -1.8012407455
 H          3.5125921209        1.4169091039        0.0743791439
 H          3.1809110473       -2.6911100389       -0.3003089246
 H          2.4487460569       -1.7952812368       -2.3708820235
 H          0.9103631160       -0.2233315895       -3.5070278514
 H         -0.4196776669        1.3673956708       -2.1854599638
 C         -0.5931024767        1.6963439350        0.3858996561
 H         -0.5519250644        2.6126605167       -0.2254559390
 C         -0.3436951392        2.1633257277        1.8136774609
 C         -0.2123545485        1.2750034465        3.0121212638
 C          0.9511960165        2.1117246289        2.5671656073
 H          1.2096768445        2.9713182252        3.1688406408
 H          1.8076626456        1.6157244862        2.1397119550
 H         -0.7386816472        1.5609873298        3.9122196712
 H         -0.1888288617        0.2083704716        2.8550447724
 H         -0.9349581888        3.0618225675        1.9834449506
 O         -1.6305951012       -0.9611545902        1.0580950529
