  62
        -98.93497668
 C         -1.7653176298       -0.3110717701       -1.0922225218
 C         -2.1782023897        0.2177095026        0.1517043093
 C         -3.6345921112        0.3148266673        0.3741302892
 C         -4.4732676694       -0.1101920067       -0.5879589885
 C         -5.9811981736       -0.1096035922       -0.5943140489
 C         -6.6741933979       -0.5889492720        0.6906504101
 C         -7.3757097461        0.5335294682        1.4571368379
 H         -7.8554798506        1.1990503667        0.7364613070
 H         -8.1655832222        0.0961498865        2.0719783264
 C         -6.4732985359        1.3524517850        2.3785711814
 H         -6.1953479332        0.7460904161        3.2434084908
 H         -7.0594300938        2.1968079951        2.7491223175
 C         -5.1930492441        1.8891432420        1.7348644364
 H         -4.8622441083        2.7498774917        2.3199095179
 H         -5.3940640139        2.2487438636        0.7264729479
 C         -4.0422233758        0.8719840560        1.7108745511
 H         -3.1319832067        1.3367449631        2.1024468854
 H         -4.2659394764        0.0397819836        2.3847709993
 H         -7.4279941235       -1.3255496728        0.4076653701
 H         -5.9550429817       -1.0948187368        1.3331377893
 H         -6.3267255898        0.8953085888       -0.8490358870
 H         -6.2609255802       -0.7551952819       -1.4299490194
 O         -4.0258355848       -0.6113759648       -1.7761236138
 C         -2.6779656589       -0.7251100495       -2.0598918418
 O         -2.4235541562       -1.2075344614       -3.1826200916
 O         -1.3711297395        0.5951925633        1.0407406884
 C         -0.2871702694       -0.4416878757       -1.4062416236
 C          0.4102759113       -1.2905468336       -0.3707756426
 C         -0.2158740362       -2.4393151666        0.1060019269
 C          0.3979045213       -3.2399060001        1.0489922589
 C          1.6605765075       -2.9263701163        1.5203757900
 C          2.3033173433       -1.7937977649        1.0380070634
 C          1.6761437086       -0.9813323139        0.1026600399
 H          2.1923837290       -0.1072854725       -0.2577556536
 N          3.5802703879       -1.4438162298        1.4999192012
 S          4.7235998016       -0.8481608463        0.4348647138
 O          4.5750778581       -1.4190391027       -0.8834207951
 O          5.9917133927       -1.0907484165        1.0904023965
 C          4.4383934500        0.9082641403        0.3817517596
 C          4.0660600770        1.5673129504        1.5365213882
 C          3.8934788567        2.9416403358        1.4955082411
 C          4.1042406901        3.6318011928        0.3113546628
 C          4.4840388670        2.9561986655       -0.8379046850
 C          4.6533053286        1.5806201280       -0.8049895567
 H          4.9355828472        1.0141782134       -1.6782174057
 H          4.6474388433        3.4938566645       -1.7585921054
 H          3.9700303423        4.7017092379        0.2833018757
 H          3.5946963614        3.4700429548        2.3865588970
 H          3.9074128083        1.0014254468        2.4391856420
 H          3.9863319752       -2.0885289802        2.1622213565
 H          2.1433543697       -3.5526812945        2.2552213629
 H         -0.1069032094       -4.1211390399        1.4158430198
 H         -1.1985278612       -2.6928234369       -0.2687415520
 H         -0.2259211802       -0.9696985714       -2.3700404693
 C          0.3266344821        0.9345124763       -1.5663333202
 C          1.4683937548        1.1540327809       -2.5111523546
 C          0.1052183906        1.6765513100       -2.8488499332
 H         -0.0642268225        2.7417845668       -2.8063978385
 H         -0.4626605114        1.1737458513       -3.6184786931
 H          2.2334116130        1.8635837738       -2.2340858455
 H          1.8382621911        0.2991618081       -3.0576688791
 H          0.3063102151        1.5060843899       -0.6454405375
