  62
        -98.93005927
 C         -2.4501749185       -0.5211734704       -0.1376293234
 C         -1.9587637145       -1.5413374698       -0.9802810325
 C         -1.1233347531       -2.5857042677       -0.3598905042
 C         -0.9038844654       -2.5310579950        0.9669555179
 C         -0.0522369476       -3.4365791271        1.8183266427
 C          1.4451001371       -3.1473674040        1.6539872522
 C          1.9273288376       -3.0964033785        0.2071541797
 H          2.9993662305       -2.8783354074        0.2251204835
 H          1.4465096218       -2.2561109263       -0.2983486302
 C          1.7235388624       -4.3783885502       -0.5988978812
 H          2.1892041473       -5.2119938413       -0.0686436660
 H          2.2555525920       -4.2451148425       -1.5441014987
 C          0.2738234278       -4.7513438180       -0.9279612012
 H         -0.2040430525       -5.2732183624       -0.1025261734
 H          0.3014810471       -5.4548067369       -1.7650450222
 C         -0.5961611565       -3.5786945767       -1.3674045840
 H         -1.4821843398       -3.9685703410       -1.8830586734
 H         -0.0593071669       -2.9904918430       -2.1217059679
 H          2.0047817153       -3.9068785930        2.2039792463
 H          1.6503095321       -2.1712734171        2.1010678723
 H         -0.2678766947       -4.4794137293        1.6060337343
 H         -0.3318208603       -3.2385769697        2.8557269943
 O         -1.4488385845       -1.5587719592        1.7522347161
 C         -2.1704320071       -0.5037244420        1.2289784589
 O         -2.5180341656        0.3488875132        2.0670722647
 O         -2.1944714203       -1.5742837716       -2.2218371892
 C         -3.1651973637        0.6709627731       -0.7664291031
 C         -2.3522663565        1.8906932618       -0.3968111101
 C         -2.7603147195        3.0512497231        0.2459454070
 C         -1.8380402260        4.0300832075        0.5853820801
 C         -0.4903101054        3.8705789585        0.3301790022
 C         -0.0685677647        2.7195973143       -0.3258764502
 C         -0.9999424281        1.7768882180       -0.7155941347
 H         -0.6514841937        0.8943702823       -1.2332178522
 N          1.2914099470        2.4711053322       -0.5985015077
 S          1.7909606804        0.8691413773       -0.3411197957
 O          1.5658793182        0.1174980321       -1.5509470335
 O          1.1962390312        0.3533503720        0.8691700007
 C          3.5443329827        1.1061588552       -0.1151103455
 C          4.0678448339        1.1198113894        1.1635403663
 C          5.4267954590        1.3373389636        1.3297560210
 C          6.2335349419        1.5407779155        0.2203308644
 C          5.6936912214        1.5235089450       -1.0573735261
 C          4.3362954732        1.3043722747       -1.2304042471
 H          3.8722631272        1.2720009759       -2.2023167647
 H          6.3243830253        1.6788888000       -1.9176904510
 H          7.2902698045        1.7110815848        0.3523755886
 H          5.8488846514        1.3473707116        2.3217170203
 H          3.4009602557        0.9507444033        1.9940753310
 H          1.9031808317        3.1203152053       -0.1211378876
 H          0.2258785066        4.6170271223        0.6386517218
 H         -2.1799527507        4.9213872522        1.0898765056
 H         -3.7878076145        3.2064310152        0.5202212831
 H         -3.0380871379        0.5244438475       -1.8535151975
 C         -4.6586693155        0.5713987361       -0.5073083669
 C         -5.3677617629        1.0789894966        0.7085543725
 C         -5.6371256588        1.7010068324       -0.6304493044
 H         -6.5864000233        1.4890857331       -1.1002013952
 H         -5.2626021508        2.6886712224       -0.8426395587
 H         -6.1314090857        0.4477088238        1.1397827449
 H         -4.7858603897        1.6043738548        1.4475837247
 H         -5.0085986064       -0.3889174323       -0.8814820792
