  62
        -98.94122783
 C         -0.9183176713       -1.5950128629       -0.7965476946
 C         -2.2230125942       -1.6320736339       -0.2450202446
 C         -3.0939580195       -0.4721058943       -0.4962664625
 C         -2.6097773730        0.5556014677       -1.2144070516
 C         -3.2636011542        1.8830318932       -1.4821652062
 C         -2.8632889291        2.8972879855       -0.3951115823
 C         -3.7921181435        2.9340114922        0.8165330906
 H         -3.3523725814        3.6257051983        1.5390733870
 H         -4.7629329186        3.3371896695        0.5189443706
 C         -4.0027578521        1.5814947899        1.5013882557
 H         -3.0445792588        1.0606659226        1.5680989496
 H         -4.3374450580        1.7705887624        2.5235678354
 C         -5.0403630867        0.6981279218        0.7927413752
 H         -5.7726038476        0.3456756420        1.5224016485
 H         -5.5894921909        1.3024695431        0.0707948310
 C         -4.4735821914       -0.5484758665        0.0996792770
 H         -5.1714279647       -0.8676291745       -0.6822127203
 H         -4.4165890062       -1.3691176492        0.8218523679
 H         -1.8508301862        2.6565790859       -0.0562272926
 H         -2.8372073841        3.8970298520       -0.8346460430
 H         -4.3429715330        1.7813701565       -1.5463251374
 H         -2.8846749088        2.2308679440       -2.4454095347
 O         -1.3679981336        0.5366072934       -1.7638903958
 C         -0.4842595220       -0.5092360633       -1.5570578595
 O          0.6191651021       -0.3380071089       -2.1120583277
 O         -2.6419190283       -2.6017587147        0.4462519264
 C          0.0102893301       -2.7341898737       -0.4083449048
 C          0.7414570260       -2.3460137665        0.8568192513
 C          0.7687993839       -3.1770256587        1.9700139326
 C          1.3771673781       -2.7604380303        3.1415767733
 C          1.9314817791       -1.4964301361        3.2383512610
 C          1.9101469297       -0.6601901469        2.1280952635
 C          1.3580929733       -1.1063600486        0.9385078109
 H          1.3670160781       -0.4544579500        0.0807223964
 N          2.4252078505        0.6438861103        2.1731246084
 S          1.6132693433        1.8526507060        1.3354456150
 O          1.9787328288        3.0725591623        2.0304881371
 O          0.1947099364        1.5900716961        1.2524197607
 C          2.3629475349        1.8929966897       -0.2766037244
 C          3.6718631577        1.4819133563       -0.4277269449
 C          4.2594495134        1.5723559275       -1.6788114847
 C          3.5361611963        2.0768493099       -2.7483920279
 C          2.2253833452        2.4907390394       -2.5778367365
 C          1.6304320045        2.3988845411       -1.3302801023
 H          0.6053097665        2.6910221668       -1.1637696994
 H          1.6578033852        2.8726328559       -3.4112226020
 H          3.9938428003        2.1420858171       -3.7230932250
 H          5.2775364692        1.2447769694       -1.8166433783
 H          4.2022189452        1.0872536898        0.4230916144
 H          2.7265260996        0.9590976410        3.0839145744
 H          2.3666265218       -1.1546821653        4.1650645350
 H          1.3928666429       -3.4150720344        3.9997591380
 H          0.2882697309       -4.1428924192        1.9226737865
 H         -0.6441698985       -3.5836179672       -0.1690689506
 C          0.9829114178       -3.1631087095       -1.4872438415
 C          1.5484338785       -4.5502088441       -1.4463562277
 C          0.5532531824       -4.1770722712       -2.5029058447
 H          0.8939959637       -4.0598055728       -3.5203005470
 H         -0.4493876123       -4.5712098053       -2.4216492662
 H          2.5775361728       -4.6934422441       -1.7371197862
 H          1.2205733995       -5.2030768373       -0.6517940853
 H          1.6284086760       -2.3633307963       -1.8249733183
