  62
        -98.94020049
 C         -2.2243250993       -0.9014849811        0.4023370007
 C         -1.0554421944       -1.1575502160        1.1569571607
 C         -0.2820553437       -2.3491825923        0.7764177739
 C         -0.6828441314       -3.0933006192       -0.2684388099
 C          0.0999794162       -4.2170747479       -0.8842812997
 C          1.2279119651       -3.6265931709       -1.7568526372
 C          2.6406916853       -3.9412544054       -1.2640518470
 H          2.8762407039       -4.9821783611       -1.4975963564
 H          3.3268422638       -3.3093851850       -1.8326570118
 C          2.8887202397       -3.7247008917        0.2319901785
 H          2.5098858512       -4.5805612599        0.7933181059
 H          3.9711223816       -3.7100548375        0.3761337217
 C          2.2954544557       -2.4421348406        0.8290394393
 H          2.1622750137       -1.6837280622        0.0558810685
 H          3.0095641829       -2.0392080237        1.5508883785
 C          0.9596758730       -2.6463002280        1.5708631340
 H          0.9074175445       -3.6659148879        1.9620053579
 H          0.9246371644       -1.9623766046        2.4234761911
 H          1.1307700468       -3.9982714419       -2.7786244265
 H          1.0950235402       -2.5422930246       -1.8050868914
 H          0.5106830139       -4.8567701788       -0.1062559521
 H         -0.5873257057       -4.8029508006       -1.4950744022
 O         -1.8235019646       -2.8353344967       -0.9582856831
 C         -2.6029984068       -1.7341649986       -0.6546527418
 O         -3.6090717294       -1.6053650256       -1.3832194508
 O         -0.6389405971       -0.4293065676        2.0991510677
 C         -3.0815916816        0.3461047872        0.5614278265
 C         -2.5288969787        1.4294882302       -0.3378024967
 C         -3.3507844874        2.1492199490       -1.1955367223
 C         -2.8109947906        3.0815507995       -2.0645588062
 C         -1.4437458150        3.2809321909       -2.1229651742
 C         -0.6124622180        2.5667566838       -1.2659889835
 C         -1.1654267932        1.6850758451       -0.3519781336
 H         -0.5164659796        1.1524931941        0.3203037078
 N          0.7815295895        2.7181687636       -1.3160982988
 S          1.8103937345        1.3830537390       -1.2654729850
 O          2.7433380537        1.5911159480       -2.3565290813
 O          1.0768059036        0.1418910712       -1.2913475733
 C          2.6934055957        1.6089719057        0.2661365904
 C          3.8609948547        2.3483326944        0.2207371233
 C          4.5669201735        2.5700162648        1.3911507860
 C          4.0959299118        2.0513401193        2.5879996045
 C          2.9242218968        1.3123224282        2.6175377203
 C          2.2111755181        1.0878534981        1.4491597846
 H          1.2983226238        0.5133804392        1.4635812285
 H          2.5506487988        0.9059059489        3.5440181504
 H          4.6441425476        2.2215366913        3.5012449884
 H          5.4791927621        3.1440449231        1.3669767182
 H          4.1968302892        2.7207067842       -0.7329888299
 H          1.0961880143        3.3631886715       -2.0268318414
 H         -1.0191133717        3.9759823710       -2.8318871678
 H         -3.4587888705        3.6368064853       -2.7260568819
 H         -4.4137323154        1.9583879807       -1.1973445983
 H         -4.0786901147        0.0793255946        0.1835945422
 C         -3.2267517971        0.8428137203        1.9851705268
 C         -4.4280206400        1.6600077788        2.3508076287
 C         -4.2904812235        0.2581636737        2.8626923903
 H         -4.0673830273        0.1053226754        3.9076212433
 H         -4.9251238683       -0.5053451319        2.4362131776
 H         -4.3011512323        2.4757451354        3.0456207875
 H         -5.1623293916        1.8472256919        1.5820779541
 H         -2.2838814834        1.0966018525        2.4499668006
