  62
        -98.93888738
 C         -1.9606547710       -0.5369283824       -0.0585420693
 C         -2.9722181235       -0.7048181659        0.9221514759
 C         -4.1422546973        0.1849713754        0.8384797467
 C         -4.1863051010        1.1086139260       -0.1368336331
 C         -5.2934039336        2.0817870944       -0.4339715653
 C         -6.2626740127        1.5029545019       -1.4787365886
 C         -7.3959928519        0.6538149724       -0.9046517625
 H         -8.1004640681        1.3031452970       -0.3805784795
 H         -7.9274048189        0.2077722706       -1.7485056411
 C         -6.9584600325       -0.4627697859        0.0468096580
 H         -6.0775779375       -0.9652682283       -0.3567714408
 H         -7.7613975626       -1.2013272939        0.0878147778
 C         -6.6685778725        0.0357835739        1.4704272283
 H         -7.2235975386       -0.5733663798        2.1869593368
 H         -7.0435582398        1.0536295357        1.5756635831
 C         -5.1940437839       -0.0182373458        1.8947508701
 H         -5.0263858437        0.7086758840        2.6967835285
 H         -4.9734621377       -1.0030996847        2.3184479587
 H         -6.7083440367        2.3280658510       -2.0380749976
 H         -5.6778507695        0.9080746597       -2.1850432883
 H         -5.8161357263        2.3611496281        0.4759698806
 H         -4.8196673495        2.9716377548       -0.8540781462
 O         -3.1929536154        1.2428703635       -1.0554359891
 C         -2.0660164893        0.4386193147       -1.0492167982
 O         -1.2652796067        0.7052372992       -1.9689020668
 O         -2.9042500406       -1.5768619616        1.8293921817
 C         -0.7606483138       -1.4652688373        0.0351442189
 C          0.4155381927       -0.7678508799        0.6762949391
 C          0.8833199152       -1.1632240175        1.9240471889
 C          1.9632172717       -0.5240167687        2.5085057407
 C          2.5989606793        0.5193064256        1.8604841181
 C          2.1379297956        0.9213851269        0.6129292538
 C          1.0605687782        0.2743889954        0.0252362707
 H          0.6986068306        0.6022278999       -0.9377108723
 N          2.7790618202        1.9775646197       -0.0566699453
 S          4.4503781606        1.9442500911       -0.1221550558
 O          4.9920141812        2.4893592953        1.0984928793
 O          4.8037852790        2.6478908210       -1.3351444520
 C          4.8776196533        0.2157548377       -0.2472630359
 C          5.6693059212       -0.3683435499        0.7203076481
 C          5.9607345305       -1.7196060158        0.6226041992
 C          5.4531974765       -2.4603169357       -0.4331858634
 C          4.6617091564       -1.8579498513       -1.3992113584
 C          4.3691232389       -0.5071519837       -1.3083495192
 H          3.7579411248       -0.0109926763       -2.0454202618
 H          4.2676021267       -2.4354757141       -2.2199194098
 H          5.6747375794       -3.5133477839       -0.5056252669
 H          6.5776980623       -2.1898404958        1.3712275971
 H          6.0378752225        0.2444914440        1.5267445098
 H          2.3747548285        2.1898389939       -0.9569491323
 H          3.4347468806        1.0364695750        2.3035115917
 H          2.3127615871       -0.8398731905        3.4794214598
 H          0.3831476503       -1.9679282125        2.4426629480
 H         -1.0774387110       -2.2708067825        0.7106912468
 C         -0.3719097523       -2.0801144519       -1.2957001418
 C          0.4710980407       -3.3186629340       -1.3039156330
 C         -0.9725096852       -3.3916632215       -1.6996939962
 H         -1.2184755394       -3.5464405664       -2.7396383243
 H         -1.6675162100       -3.8552831444       -1.0147824762
 H          1.2192284851       -3.4256591455       -2.0738536230
 H          0.7573875633       -3.7343886028       -0.3500033478
 H         -0.2054981247       -1.3504502672       -2.0771635810
