  62
        -98.93599907
 C         -2.3867929412       -1.1794192810       -0.0572916257
 C         -3.4753573252       -0.8559252241        0.7910709842
 C         -4.4826538499        0.0616000912        0.2401958499
 C         -4.3213512013        0.5353371996       -1.0087298020
 C         -5.2108340948        1.5423474227       -1.6807070977
 C         -4.9014938568        2.9557345163       -1.1468759053
 C         -6.0469810554        3.5989058154       -0.3648486946
 H         -5.6447465133        4.4815853239        0.1368187869
 H         -6.8100290714        3.9388284103       -1.0682535702
 C         -6.7323842398        2.7046284789        0.6728576017
 H         -7.3239929526        3.3599261552        1.3157012928
 H         -7.4384457783        2.0385931174        0.1746372019
 C         -5.8005748282        1.8620103295        1.5534205967
 H         -4.8113567407        2.3164533152        1.6126104627
 H         -6.2073646210        1.8532439645        2.5666710433
 C         -5.6603705020        0.3921372536        1.1148780812
 H         -6.5821259807        0.0678717467        0.6240191173
 H         -5.5281258593       -0.2269871102        2.0070263841
 H         -4.0144597737        2.8953898324       -0.5126888160
 H         -4.6463717617        3.6116052978       -1.9805908687
 H         -6.2534936191        1.2864336291       -1.5061158698
 H         -5.0120935160        1.4884351017       -2.7512221309
 O         -3.2635439744        0.2034173278       -1.7920841060
 C         -2.2687512215       -0.6537217839       -1.3434316294
 O         -1.3672256862       -0.8599415415       -2.1781435484
 O         -3.5995812655       -1.3184554390        1.9566636675
 C         -1.3163909488       -2.1127054554        0.4847331273
 C         -0.0539661900       -1.3199364941        0.7183684968
 C          0.0855290151       -0.5970118474        1.9000576458
 C          1.2149212184        0.1650001280        2.1324259017
 C          2.2251116086        0.2309079819        1.1883659496
 C          2.0932031483       -0.4810428935        0.0041069456
 C          0.9641261144       -1.2588638808       -0.2203961551
 H          0.8674899933       -1.7960966799       -1.1507579254
 N          3.0991952649       -0.3941590765       -0.9719514065
 S          4.6960591066       -0.6096667678       -0.5138702291
 O          5.3833910927       -1.0315406136       -1.7149219570
 O          4.8064062320       -1.4867873584        0.6289334713
 C          5.2441507902        1.0280469932       -0.0794414913
 C          5.0612125163        2.0421100055       -0.9990826537
 C          5.4941967047        3.3194709696       -0.6812689457
 C          6.1023427659        3.5594782613        0.5420659332
 C          6.2816333430        2.5300507673        1.4532198404
 C          5.8496578897        1.2500896953        1.1418491435
 H          5.9618470841        0.4203628814        1.8214334554
 H          6.7546450748        2.7184922084        2.4035872537
 H          6.4383479369        4.5548974245        0.7861977937
 H          5.3556225795        4.1225727542       -1.3871560513
 H          4.5853396748        1.8148311979       -1.9385829025
 H          2.8861405149       -0.8944573571       -1.8223754131
 H          3.1073239208        0.8256465247        1.3606098460
 H          1.3104784292        0.7160582785        3.0556453351
 H         -0.7092711523       -0.6371741272        2.6318334755
 H         -1.6918642449       -2.4436770972        1.4624763252
 C         -1.1172867460       -3.3300048619       -0.3939166373
 C         -0.3490875012       -4.4997979401        0.1423735220
 C         -1.8308639751       -4.6029201134       -0.0556018652
 H         -2.2021685344       -5.2150788240       -0.8637989978
 H         -2.4643648460       -4.6038820002        0.8191890087
 H          0.3000954799       -5.0432248923       -0.5273753724
 H          0.0256091231       -4.4276107163        1.1523525906
 H         -1.0084204037       -3.0914922218       -1.4448169719
