  62
        -98.94031855
 C         -2.7474690817       -0.2493916465       -0.2101682757
 C         -2.3875313413       -1.1473969691        0.8240136011
 C         -1.8348053427       -2.4371559871        0.3860096718
 C         -1.6256791038       -2.6747709295       -0.9202691222
 C         -0.9904946691       -3.9050517403       -1.5078681667
 C          0.5443432299       -3.8753714758       -1.4572114803
 C          1.1587427890       -4.1419164677       -0.0814356667
 H          0.7073130525       -5.0349317274        0.3527400471
 H          2.2171825669       -4.3565830730       -0.2428066477
 C          1.0417469522       -2.9694025587        0.9028085958
 H          1.9960311721       -2.8342271022        1.4189971883
 H          0.8447578203       -2.0495539839        0.3452059856
 C         -0.0248875124       -3.1486381970        1.9833590886
 H          0.2578460512       -3.9737866525        2.6414530216
 H         -0.0627987467       -2.2367404468        2.5849742081
 C         -1.4359827969       -3.4182523799        1.4484555548
 H         -1.5043470086       -4.4353315276        1.0636424215
 H         -2.1390670196       -3.3089662109        2.2783663538
 H          0.8847153042       -2.9022955459       -1.8223469706
 H          0.9080279708       -4.6390809414       -2.1489364548
 H         -1.3593473742       -4.7959042074       -0.9983484715
 H         -1.3016539041       -3.9469969627       -2.5537896309
 O         -1.9811277714       -1.7874981440       -1.8868531218
 C         -2.5266547672       -0.5614300984       -1.5559151844
 O         -2.7882497105        0.1641065690       -2.5380808585
 H         -0.7335469431        0.7002975347        0.9877015795
 C         -0.8082693484        1.6724685017        0.5197734928
 C         -2.0251972805        2.0995883986        0.0112621449
 C         -2.0867457331        3.3578691054       -0.5756974677
 C         -0.9550643928        4.1483250697       -0.6773004750
 C          0.2685501729        3.6901796831       -0.2202880480
 C          0.3336549989        2.4438558619        0.3828619878
 N          1.6028301569        1.9166552243        0.7617368325
 S          2.2698123581        1.1319565265       -0.5914839367
 O          2.4179249736        2.1157165751       -1.6340275508
 O          1.4949357847       -0.0443419354       -0.9248602795
 C          3.8776525905        0.6617842436        0.0186117643
 C          4.7598754833        1.6696357876        0.3585145359
 C          6.0107846154        1.3267856056        0.8453506274
 C          6.3561407870       -0.0098281194        0.9832197302
 C          5.4596806762       -1.0090536511        0.6370643150
 C          4.2056723479       -0.6729679714        0.1500926931
 H          3.4765265177       -1.4146621941       -0.1344841372
 H          5.7306696256       -2.0471957711        0.7429376458
 H          7.3309617966       -0.2744904654        1.3613272754
 H          6.7113815587        2.1005322380        1.1147238462
 H          4.4489263363        2.6925889174        0.2284894813
 H          1.4907985107        1.2101211810        1.4803047917
 H          1.1699838807        4.2664143475       -0.3468253007
 H         -1.0200432703        5.1184757684       -1.1457562588
 H         -3.0242516481        3.7040554109       -0.9845113592
 C         -3.2234728916        1.1748290572        0.0298112818
 H         -3.8491042970        1.4387894731       -0.8350179222
 C         -4.0420350495        1.3721345202        1.2891464631
 C         -5.0589568634        2.4712628154        1.3389842700
 C         -5.5029044255        1.0415105583        1.2750251871
 H         -5.9337742532        0.5890489234        2.1549864077
 H         -5.9222182311        0.6782476971        0.3478750346
 H         -5.1869426349        3.0085817863        2.2658216996
 H         -5.1896600233        3.0786791902        0.4564459866
 H         -3.4945066592        1.1508147227        2.1954278039
 O         -2.4877816351       -0.9078376700        2.0572168396
