  62
        -98.94232469
 C         -1.9837053333       -1.3052556324       -0.1319043889
 C         -3.0897819373       -1.2117264984        0.7538138110
 C         -4.2885895576       -0.5454370778        0.2356357177
 C         -4.2986618431       -0.0836064792       -1.0274790331
 C         -5.4537691491        0.5900840710       -1.7171220831
 C         -5.5653285375        2.0930858052       -1.4269767034
 C         -6.0487522962        2.4499384451       -0.0207409851
 H         -6.2898425193        3.5148241194       -0.0255308114
 H         -6.9708276074        1.9086942900        0.1934796654
 C         -5.0221702901        2.1818774781        1.0888651571
 H         -4.9744836391        3.0446008166        1.7572297748
 H         -4.0292272249        2.0663191343        0.6476462210
 C         -5.3255449545        0.9567428830        1.9515855924
 H         -4.5163632455        0.8407199497        2.6771662028
 H         -6.2533471923        1.1189875923        2.5046537878
 C         -5.4486803731       -0.3547839145        1.1650786988
 H         -5.4433959888       -1.1834804284        1.8773055433
 H         -6.3871916834       -0.3746619640        0.6113184252
 H         -6.2710757077        2.5123119421       -2.1479134775
 H         -4.5927282932        2.5574725555       -1.6063137180
 H         -5.2959099287        0.4574388278       -2.7897047127
 H         -6.3847487243        0.0950368397       -1.4392179489
 O         -3.2267196560       -0.2025437572       -1.8519809627
 C         -2.0391225967       -0.7896159644       -1.4273453866
 O         -1.1466592495       -0.7783754835       -2.2964325763
 H          0.2647000287        0.1911590786       -0.8123475050
 C          0.6816882385        0.0506319663        0.1740233419
 C          0.2654611550       -1.0288405185        0.9414996617
 C          0.8199815042       -1.1987043903        2.2047662618
 C          1.7609901506       -0.3057957391        2.6884039847
 C          2.1721947130        0.7690319042        1.9212800964
 C          1.6268921405        0.9451245937        0.6555578393
 N          2.0496183122        2.0245663089       -0.1407475940
 S          3.7014441294        2.2689522615       -0.2776408397
 O          4.1755127200        2.9902125747        0.8775569527
 O          3.8886145345        2.9252431212       -1.5520025515
 C          4.4107044569        0.6322245732       -0.2997654345
 C          4.0886484309       -0.1999971138       -1.3536911088
 C          4.5913307894       -1.4910375726       -1.3661140312
 C          5.4001749995       -1.9264447156       -0.3275429969
 C          5.7190839773       -1.0769651042        0.7202850868
 C          5.2195955803        0.2154967273        0.7378087633
 H          5.4416461248        0.9084246191        1.5327593209
 H          6.3505570127       -1.4175787426        1.5248410830
 H          5.7826293787       -2.9347018129       -0.3376212392
 H          4.3420673195       -2.1532798621       -2.1795118128
 H          3.4575467778        0.1693423327       -2.1471003131
 H          1.6032487030        2.0531937677       -1.0459912661
 H          2.8980763090        1.4789396721        2.2830924486
 H          2.1782875943       -0.4468241852        3.6734656316
 H          0.4978739377       -2.0300783499        2.8142620201
 C         -0.7472483027       -2.0068005389        0.4032161919
 H         -1.1171411354       -2.5972928777        1.2562747955
 C         -0.1448476514       -2.9888885831       -0.5935916323
 C          1.1409992906       -2.7562167102       -1.3220426518
 C          1.0778340533       -3.7790764191       -0.2304629973
 H          1.1136965590       -4.8250788654       -0.4937610959
 H          1.5637121302       -3.5379423814        0.7028128570
 H          1.6790280842       -1.8417470921       -1.1298041414
 H          1.1973653209       -3.0861756998       -2.3480932949
 H         -0.9171217301       -3.5151805920       -1.1464962565
 O         -3.0766924991       -1.6784622588        1.9238756283
