  62
        -98.94124889
 C          2.2281419277        0.9316413916       -0.0888664832
 C          2.9361160600        0.4209909044        1.0310869057
 C          3.7691577099       -0.7619106634        0.7944520965
 C          3.7970626057       -1.3207333209       -0.4285318802
 C          4.5743076494       -2.5457456010       -0.8273519966
 C          6.0392874870       -2.2660185263       -1.1902801048
 C          6.9504236383       -1.9332680119       -0.0080914596
 H          6.8441433174       -2.7019999435        0.7578809452
 H          7.9781351243       -1.9773896897       -0.3739384078
 C          6.7054745686       -0.5498036479        0.6104037428
 H          6.1312387006        0.0642923486       -0.0871596816
 H          7.6620278402       -0.0464078139        0.7672381849
 C          5.9814777785       -0.5762925543        1.9565672825
 H          5.8283801659        0.4550547988        2.2840858221
 H          6.6066730254       -1.0765020772        2.6993462478
 C          4.6131891533       -1.2699563160        1.9241168373
 H          4.7396672832       -2.3498085029        1.8475881537
 H          4.0902197010       -1.0438102364        2.8565265601
 H          6.4287715264       -3.1607350504       -1.6814147464
 H          6.0692654754       -1.4493177373       -1.9152447460
 H          4.5304513790       -3.2832000161       -0.0251883944
 H          4.0738763240       -2.9587535736       -1.7060551481
 O          3.0783567935       -0.8260167042       -1.4692403125
 C          2.2907229627        0.3126946540       -1.3373766837
 O          1.7168562703        0.6393695686       -2.3942930827
 O          2.8771876484        0.9395913229        2.1775373650
 C          1.3931375903        2.1788685529        0.1492456662
 C         -0.0385154971        1.8137183376        0.4473908674
 C         -0.6579923366        2.2327503592        1.6184460212
 C         -1.9655599341        1.8694520036        1.8918144184
 C         -2.6810166441        1.0860813043        1.0041203175
 C         -2.0684145900        0.6562230522       -0.1659639082
 C         -0.7581753520        1.0209169140       -0.4368848982
 H         -0.2845197628        0.6815718674       -1.3467861256
 N         -2.7878421823       -0.1380803211       -1.0795492051
 S         -3.4699460706       -1.5550497108       -0.4848771347
 O         -2.7282210261       -2.0634704966        0.6468096439
 O         -3.5854915799       -2.4347634927       -1.6275091953
 C         -5.1002221028       -1.0525586157        0.0259142608
 C         -5.5117872606       -1.2628941494        1.3273680227
 C         -6.7871941740       -0.8658757054        1.6987251849
 C         -7.6231510094       -0.2693440324        0.7672260478
 C         -7.1952576343       -0.0676200523       -0.5367366099
 C         -5.9223321953       -0.4634701673       -0.9149211740
 H         -5.5517808386       -0.3296509917       -1.9175319100
 H         -7.8482304323        0.3962152275       -1.2584091145
 H         -8.6143268159        0.0399049634        1.0591978713
 H         -7.1215913943       -1.0220733884        2.7117437770
 H         -4.8242357381       -1.7247631807        2.0180553169
 H         -2.2675195200       -0.3324191887       -1.9240093097
 H         -3.6990884866        0.7995182252        1.2114507006
 H         -2.4331626833        2.1996301559        2.8066940552
 H         -0.1012967497        2.8315463766        2.3242803222
 H          1.8163671197        2.6200120452        1.0654680223
 C          1.5344045309        3.2140683961       -0.9591567902
 C          0.4186205448        3.6226706349       -1.8693478931
 C          0.8940488885        4.5622018531       -0.8048815151
 H          1.4533481305        5.4387086885       -1.0944933345
 H          0.2527064784        4.7075320877        0.0513992561
 H          0.6678749412        3.8301709053       -2.8989177747
 H         -0.5453513516        3.1560079033       -1.7429800963
 H          2.5254557513        3.1956939121       -1.4017013045
