  62
        -98.94344737
 C          1.9658969702        0.8580169246        0.0169564452
 C          2.2447354486       -0.1004370922        1.0184715260
 C          2.4797029884       -1.4689825535        0.5481751411
 C          2.3803461988       -1.7489143594       -0.7641747625
 C          2.5501697113       -3.1046694361       -1.3949887437
 C          4.0097573875       -3.4909628060       -1.6716120354
 C          4.8361304759       -3.8421922043       -0.4338549751
 H          4.3055539999       -4.5915583902        0.1542358133
 H          5.7626257072       -4.2993385644       -0.7866478213
 C          5.1861782532       -2.6408365698        0.4551816432
 H          5.0372106499       -1.7160351913       -0.1067969199
 H          6.2429123989       -2.6845337682        0.7278259271
 C          4.3863815562       -2.5609041263        1.7554875806
 H          4.6880162031       -1.6561622463        2.2893178298
 H          4.6241561852       -3.4198618916        2.3868377271
 C          2.8655674719       -2.5074122545        1.5580844154
 H          2.4881007740       -3.4855937422        1.2595997671
 H          2.4021848214       -2.2314850588        2.5090070060
 H          3.9955150165       -4.3612162619       -2.3317058542
 H          4.4904366323       -2.6715793229       -2.2107773721
 H          2.0826861300       -3.8605185826       -0.7629379417
 H          2.0141151179       -3.0706199561       -2.3459312807
 O          2.0862552577       -0.8033139902       -1.6955257467
 C          1.8724045232        0.5176797578       -1.3324034874
 O          1.6159606394        1.2767907266       -2.2870535950
 O          2.2906541969        0.1756308433        2.2497205173
 C          1.6805579530        2.2895716635        0.4252174946
 C          0.2877531270        2.6989660832        0.0084506091
 C         -0.0327858434        3.9974918250       -0.3678970821
 C         -1.3316196495        4.3241619185       -0.7182547244
 C         -2.3323049436        3.3710443201       -0.7055154162
 C         -2.0207663982        2.0661770995       -0.3354628673
 C         -0.7248475610        1.7487456724        0.0341386602
 H         -0.4988248777        0.7360892623        0.3357873704
 N         -3.0045093338        1.0649699537       -0.3704675365
 S         -2.7909105540       -0.3950411525        0.4333245893
 O         -2.5391202048       -0.1700326866        1.8407289034
 O         -1.8165521722       -1.1869471635       -0.2761638543
 C         -4.4144158769       -1.0974121279        0.2106181936
 C         -4.7235625197       -1.6663614305       -1.0105587066
 C         -5.9915858590       -2.1906899623       -1.2039962602
 C         -6.9248365664       -2.1372303449       -0.1790536972
 C         -6.5998931134       -1.5647473637        1.0413881353
 C         -5.3333969846       -1.0376104204        1.2409988409
 H         -5.0319462219       -0.5907306735        2.1746688911
 H         -7.3262162602       -1.5273197093        1.8371024275
 H         -7.9106199893       -2.5470041161       -0.3321312382
 H         -6.2463303060       -2.6386557999       -2.1509035803
 H         -3.9618711867       -1.6922340243       -1.7726432117
 H         -3.9482810333        1.4168022349       -0.2952729993
 H         -3.3418292094        3.6253891832       -0.9889382820
 H         -1.5670635439        5.3371199253       -1.0074958836
 H          0.7355966465        4.7530254082       -0.3885114739
 H          1.7190645925        2.2923941633        1.5261925143
 C          2.7560384019        3.2183013371       -0.1026239058
 C          3.1865666921        4.4161706412        0.6887340366
 C          4.0935867372        3.2294488185        0.5730702085
 H          4.9800305435        3.3104204718       -0.0378156078
 H          4.2146216995        2.5904426875        1.4359242345
 H          3.4542892291        5.3161277683        0.1558407697
 H          2.7025465620        4.5895929757        1.6380915080
 H          2.7401297022        3.2938699296       -1.1841465420
