  62
        -98.94892694
 C          2.2323554739        0.8578821534        0.0803383984
 C          1.5911965890        0.1210429888       -0.9441728489
 C          1.9957721698       -1.2846770503       -1.0752374040
 C          2.8955745039       -1.7932919534       -0.2145428218
 C          3.4035929759       -3.2057482502       -0.2356143856
 C          2.5734657356       -4.1295852846        0.6646177120
 C          1.0647696971       -4.0287669152        0.4388973481
 H          0.5890955130       -4.7675438955        1.0888592966
 H          0.7095232236       -3.0485613747        0.7658702090
 C          0.6182529920       -4.2621994544       -1.0110311962
 H         -0.2597699041       -4.9116029583       -1.0021530761
 H          1.4021181163       -4.7806910341       -1.5655674567
 C          0.2196256277       -2.9848224820       -1.7527900660
 H         -0.3340125391       -3.2681705105       -2.6522183157
 H         -0.4526013213       -2.4025846349       -1.1173340501
 C          1.3792413276       -2.0805182131       -2.1908035201
 H          2.1375130442       -2.6760848095       -2.7046341885
 H          0.9812404856       -1.3460209821       -2.8971620858
 H          2.7796344691       -3.8768023242        1.7074545022
 H          2.8998168414       -5.1577349004        0.4938609840
 H          3.3862091641       -3.5721758791       -1.2604566109
 H          4.4355247498       -3.2006981077        0.1210416083
 O          3.4432328417       -1.0709634225        0.7978440762
 C          3.1158434234        0.2627382237        0.9779583525
 O          3.6711108130        0.8032016461        1.9586743971
 H          0.3623272830        0.9533585272        1.9097373631
 C         -0.2244479084        1.6520494379        1.3247829565
 C          0.4183588355        2.4906867224        0.4221159431
 C         -0.3513262708        3.3834356305       -0.3121642993
 C         -1.7295548698        3.3996846533       -0.1796300003
 C         -2.3685940487        2.5150236748        0.6702804550
 C         -1.6033859268        1.6409856568        1.4297174720
 N         -2.2694207207        0.6644397339        2.2314185893
 S         -2.2743860104       -0.8182352587        1.4145921433
 O         -3.0149796272       -1.7309699206        2.2607036925
 O         -0.9303890652       -1.2412933133        1.0850905563
 C         -3.2067399582       -0.4338802388       -0.0468818894
 C         -4.5844509076       -0.5090314686        0.0257417721
 C         -5.3338175103       -0.1635743712       -1.0866863462
 C         -4.6943497945        0.2544006314       -2.2445374104
 C         -3.3111337269        0.3273277153       -2.2982495186
 C         -2.5529037957       -0.0172972992       -1.1894884704
 H         -1.4747650910        0.0421441353       -1.2058068995
 H         -2.8085188086        0.6566196395       -3.1933985313
 H         -5.2768597538        0.5269931819       -3.1106169498
 H         -6.4098377879       -0.2179625272       -1.0473226901
 H         -5.0320849864       -0.8416861210        0.9478799389
 H         -1.8130774715        0.5191195791        3.1232238720
 H         -3.4429105807        2.4865077164        0.7514764968
 H         -2.3139408554        4.0917870511       -0.7657122775
 H          0.1282458758        4.0535556642       -1.0066873586
 C          1.9097964479        2.3321337249        0.2656869113
 H          2.3972444681        2.6375237066        1.2030906866
 C          2.4893567023        3.1395138580       -0.8770468243
 C          2.8674811578        4.5749610618       -0.6716317070
 C          3.9337480186        3.5333962928       -0.8254938063
 H          4.5075229302        3.5101289265       -1.7396919782
 H          4.4958891908        3.2380550002        0.0487986975
 H          2.7134988205        5.2704589348       -1.4826174551
 H          2.7116078228        4.9976470024        0.3093300045
 H          2.0856085957        2.8462046799       -1.8392501047
 O          0.7389714093        0.6190122660       -1.7252413072
