  62
        -98.94362263
 C         -1.8181855375       -1.1269725109        0.4501389892
 C         -2.7571354540       -1.0180080263       -0.6050147339
 C         -4.0478463849       -0.4132752571       -0.2472175866
 C         -4.2693606827        0.0101086699        1.0098106157
 C         -5.5414689342        0.6233231464        1.5289348486
 C         -5.6648028942        2.1297792544        1.2622186355
 C         -5.9392569706        2.5132831875       -0.1924950301
 H         -6.7960499460        1.9482144908       -0.5608330598
 H         -6.2188140406        3.5687354388       -0.1979076892
 C         -4.7445492500        2.3148523915       -1.1359766743
 H         -3.8273623892        2.2217024526       -0.5493149187
 H         -4.6289337075        3.1982345076       -1.7681345282
 C         -4.8631148165        1.1060518528       -2.0642456536
 H         -3.9463035602        1.0378166847       -2.6553381101
 H         -5.6982278188        1.2537868087       -2.7525795431
 C         -5.0594387894       -0.2309541986       -1.3381471987
 H         -6.0700217719       -0.2960451316       -0.9356400339
 H         -4.9168120880       -1.0370170968       -2.0619286469
 H         -6.4886204451        2.5025334248        1.8753384754
 H         -4.7498587203        2.6212089994        1.6015351663
 H         -6.3995074693        0.1054479317        1.0994194966
 H         -5.5445824192        0.4643277202        2.6095002213
 O         -3.3314828021       -0.0907565764        1.9895894606
 C         -2.0852546296       -0.6325497828        1.7289066116
 O         -1.3090984041       -0.6236833948        2.7073140717
 O         -2.5488983332       -1.4071769464       -1.7822617479
 C         -0.4337893689       -1.7170479234        0.2302067235
 C          0.3969731907       -0.7098404278       -0.5264621757
 C          0.5883044923       -0.7560685933       -1.9011770718
 C          1.3512311167        0.2108225209       -2.5338323817
 C          1.9488591805        1.2283051743       -1.8119143953
 C          1.7620093062        1.2813387689       -0.4367597360
 C          0.9878297547        0.3206446547        0.1942386489
 H          0.8323885784        0.3674038971        1.2648930274
 N          2.4253803262        2.2812824949        0.3115293409
 S          4.1004662446        2.1378440941        0.2657227361
 O          4.5845249663        2.7596319720        1.4777504522
 O          4.5863399818        2.6953800512       -0.9706727298
 C          4.3756915106        0.3752728533        0.2937686208
 C          4.1887919613       -0.2940831129        1.4868020480
 C          4.2826432265       -1.6761284009        1.5022609441
 C          4.5487229664       -2.3620253789        0.3269366985
 C          4.7375562598       -1.6750389688       -0.8620820670
 C          4.6491499588       -0.2925595118       -0.8827216630
 H          4.7871271421        0.2792334049       -1.7853241789
 H          4.9443928069       -2.2120314704       -1.7734761369
 H          4.6097781039       -3.4390921457        0.3391336271
 H          4.1372651832       -2.2123683394        2.4265964884
 H          3.9819975573        0.2727461499        2.3809135992
 H          2.1191422069        2.3132580775        1.2742833626
 H          2.5655621826        1.9756669876       -2.2848284535
 H          1.4874898206        0.1674679917       -3.6035624467
 H          0.1232341254       -1.5397929201       -2.4754311366
 H          0.0055784308       -1.8199583561        1.2316715897
 C         -0.4665208450       -3.0820040441       -0.4232126407
 C          0.7892620059       -3.8998822489       -0.4327688293
 C         -0.3625818959       -4.3042935538        0.4360955422
 H         -0.9367667880       -5.1762119347        0.1606561537
 H         -0.2749711628       -4.1607515614        1.5033521014
 H          1.0095249652       -4.4967811156       -1.3040904842
 H          1.6598609798       -3.4726906029        0.0424173020
 H         -1.1174500825       -3.1349180902       -1.2858041094
