  62
        -98.94351098
 C         -1.7176915242       -1.3781500701        0.6346382037
 C         -2.5971907213       -1.0256700374       -0.4183831121
 C         -3.4143923622        0.1775169804       -0.1924637479
 C         -3.2574258369        0.8862016102        0.9396502220
 C         -3.9913822822        2.1529829068        1.2698783997
 C         -3.2212326346        3.3899293204        0.7877914996
 C         -2.7546841313        3.2983578483       -0.6650617717
 H         -2.2552648555        4.2388659775       -0.9076614851
 H         -2.0118976564        2.5021166566       -0.7497224349
 C         -3.8791444584        3.0484189816       -1.6795494674
 H         -4.8441334805        3.2919812990       -1.2334894899
 H         -3.7386864763        3.7178467472       -2.5308804817
 C         -3.9235152036        1.6241198014       -2.2354924897
 H         -2.9328360105        1.3394791054       -2.5984948068
 H         -4.6011390152        1.6149150539       -3.0934561727
 C         -4.4070251338        0.5436082054       -1.2603377604
 H         -5.3559614269        0.8486054807       -0.8142770973
 H         -4.5770167882       -0.3701365793       -1.8371588113
 H         -3.8618436544        4.2648292685        0.9131357845
 H         -2.3432461061        3.5161524279        1.4252129547
 H         -4.9774495602        2.1237496597        0.8101446258
 H         -4.1086872259        2.2085188123        2.3534911973
 O         -2.3664802834        0.5448692154        1.9055865512
 C         -1.5797487717       -0.5843484842        1.7770091458
 O         -0.8038482579       -0.7790424666        2.7353468816
 H          1.5227895288       -1.7086284776        1.4922276225
 C          1.5346411405       -1.7820659755        0.4126181989
 C          0.4027069828       -2.2474656107       -0.2439124619
 C          0.4135131976       -2.3053156546       -1.6326127332
 C          1.5384928606       -1.9159249037       -2.3383450044
 C          2.6700099930       -1.4651171427       -1.6810299550
 C          2.6630680228       -1.3909807565       -0.2940053558
 N          3.8076931459       -0.9364246474        0.3919158632
 S          4.4253585888        0.5686131836        0.0031472298
 O          4.9439549911        0.5342140632       -1.3403367908
 O          5.3743977013        0.8712910134        1.0492450677
 C          3.0378291201        1.6842982528        0.0947620559
 C          2.7497535856        2.2779095300        1.3074349437
 C          1.6517290256        3.1171384333        1.3996813669
 C          0.8589554762        3.3383293031        0.2843434373
 C          1.1553354089        2.7267586262       -0.9238796057
 C          2.2554546450        1.8902565223       -1.0237475140
 H          2.5228853942        1.4055410650       -1.9482552454
 H          0.5336183939        2.8996337862       -1.7879590972
 H          0.0050171918        3.9931364440        0.3564724873
 H          1.4161230808        3.5923332222        2.3384989214
 H          3.3967048908        2.0864690224        2.1485951791
 H          3.7233815796       -1.0149322509        1.3956603813
 H          3.5521405267       -1.1586344506       -2.2196754560
 H          1.5359656901       -1.9663188114       -3.4167686313
 H         -0.4717140817       -2.6306875120       -2.1549095238
 C         -0.8149531344       -2.6025184685        0.5743017182
 H         -0.4812631091       -2.7748557377        1.6064623225
 C         -1.5180202513       -3.8517074026        0.0871873075
 C         -0.8672045475       -5.1809261177        0.3199531217
 C         -2.0955290543       -4.8023127396        1.0904113391
 H         -3.0262609713       -5.2963755218        0.8551390114
 H         -1.9858274486       -4.5564051395        2.1369207073
 H          0.0770976457       -5.1900023226        0.8436542823
 H         -0.9519453199       -5.9373686008       -0.4449317083
 H         -2.0689321738       -3.7137543236       -0.8328764776
 O         -2.7174206954       -1.6696756322       -1.4924505550
