  62
        -98.94333029
 C          1.9386636585        0.8434482753        0.0270815424
 C          2.2408843707       -0.1238851477        1.0133509051
 C          2.6379795066       -1.4442935811        0.5142439571
 C          2.6466768256       -1.6811719883       -0.8101903759
 C          3.0077920988       -2.9825790929       -1.4740393500
 C          4.5168543916       -3.1846806366       -1.6707808763
 C          5.3050506915       -3.4910262328       -0.3966356539
 H          4.8328018004       -4.3207771493        0.1300585047
 H          6.2976932780       -3.8233353714       -0.7066342261
 C          5.4602779137       -2.2968189775        0.5552298087
 H          5.2401028008       -1.3713911481        0.0181910899
 H          6.4967933226       -2.2325911886        0.8936437083
 C          4.5804729653       -2.3629501235        1.8036745356
 H          4.7433384307       -1.4531520264        2.3870493119
 H          4.8780430268       -3.2153129264        2.4183768666
 C          3.0780417053       -2.4733730457        1.5114253696
 H          2.8343270987       -3.4748318543        1.1567267148
 H          2.5303318336       -2.2899810095        2.4395424078
 H          4.6452963032       -4.0210126552       -2.3616566934
 H          4.9279321535       -2.2922887961       -2.1481014575
 H          2.5974349544       -3.8126595456       -0.8981859963
 H          2.5292224433       -2.9719157982       -2.4556562539
 O          2.3036446803       -0.7368595655       -1.7265320206
 C          1.9544909404        0.5473353996       -1.3354181846
 O          1.6875166622        1.3161324857       -2.2792086853
 O          2.1846880992        0.1071941433        2.2530783297
 C          1.5422249455        2.2405660916        0.4609664352
 C          0.1696358132        2.6015626912       -0.0530407051
 C         -0.1644643665        3.8856183451       -0.4656534682
 C         -1.4472478790        4.1700343998       -0.9006853106
 C         -2.4207263659        3.1896374860       -0.9278278261
 C         -2.0959561220        1.8994644779       -0.5203112835
 C         -0.8132223225        1.6203588941       -0.0791053925
 H         -0.5751341667        0.6164548524        0.2436754144
 N         -3.0525191385        0.8735122324       -0.5814823143
 S         -2.9102551509       -0.4753141738        0.4145512418
 O         -2.6978544891       -0.0670760469        1.7859521824
 O         -1.9331084747       -1.3746870449       -0.1482925845
 C         -4.5450027932       -1.1644323563        0.2324752807
 C         -4.8113395702       -1.9762972486       -0.8537276314
 C         -6.0914330384       -2.4828980203       -1.0138024721
 C         -7.0789561413       -2.1700019425       -0.0914339496
 C         -6.7964937200       -1.3557671285        0.9950461004
 C         -5.5184489132       -0.8456240904        1.1607314102
 H         -5.2492043940       -0.2176399642        1.9947043534
 H         -7.5649724255       -1.1169536426        1.7123750828
 H         -8.0740895340       -2.5657805257       -0.2187556591
 H         -6.3132301340       -3.1188016728       -1.8555924631
 H         -4.0093951571       -2.1978493029       -1.5387561453
 H         -4.0026427118        1.2123147223       -0.6395332590
 H         -3.4194537281        3.4120539011       -1.2707526769
 H         -1.6925354872        5.1714691428       -1.2202812781
 H          0.5811755411        4.6635240248       -0.4485089682
 H          1.4901603266        2.2008761148        1.5606725382
 C          2.6131903860        3.2356009979        0.0594706477
 C          2.9062469501        4.4293833229        0.9170276285
 C          3.8796252907        3.2920287370        0.8586183403
 H          4.8138471020        3.4342171564        0.3365412925
 H          3.9524246132        2.6346093058        1.7129974303
 H          3.1761270403        5.3567336432        0.4345722448
 H          2.3264739500        4.5509454500        1.8196030119
 H          2.6944951417        3.3413461369       -1.0167498558
