  62
        -98.93797863
 C         -2.0341670179       -1.1566455099        0.7765132313
 C         -1.9394887747        0.2242813302        1.0905373469
 C         -3.0998646508        1.0532567555        0.7503963716
 C         -4.1840805013        0.4813523215        0.1968075113
 C         -5.4647628402        1.1804634577       -0.1711610766
 C         -5.4355920093        1.8582077420       -1.5478134580
 C         -4.5820281734        3.1243017200       -1.6300161611
 H         -4.8221638398        3.6123004294       -2.5767590887
 H         -4.8695366661        3.8074743013       -0.8301745203
 C         -3.0691276114        2.8702939484       -1.5754071579
 H         -2.8686603366        1.8168635107       -1.7855377806
 H         -2.5734554998        3.4501563088       -2.3574412322
 C         -2.4092034581        3.2436750095       -0.2479718166
 H         -1.3496405417        2.9835300957       -0.3157454399
 H         -2.4823216245        4.3224601254       -0.0933274917
 C         -3.0017199291        2.5318246068        0.9755883130
 H         -3.9809491207        2.9470021575        1.2130572189
 H         -2.3365270425        2.6949153067        1.8271078021
 H         -5.0853381657        1.1339016423       -2.2870211134
 H         -6.4646062571        2.1215950446       -1.8033834438
 H         -6.2444624432        0.4156857024       -0.1810306134
 H         -5.7113691434        1.9180229245        0.5932252065
 O         -4.2437916821       -0.8463840881       -0.0792271671
 C         -3.1638547551       -1.6945971831        0.1587319210
 O         -3.3628818148       -2.8635217097       -0.2167291193
 O         -0.9289943627        0.7358339880        1.6400790541
 C         -0.8109966867       -1.9951379126        1.1032039663
 C          0.2076564866       -1.8737902856       -0.0024225988
 C         -0.1686420108       -1.9948905659       -1.3362334906
 C          0.7650268629       -1.8527647445       -2.3468084584
 C          2.0912386427       -1.5912152058       -2.0491406191
 C          2.4774174074       -1.4660364114       -0.7215210575
 C          1.5372589833       -1.6094077442        0.2926309226
 H          1.8409514452       -1.4931694788        1.3242675144
 N          3.8307476687       -1.1994856346       -0.4260729712
 S          4.4520752045        0.2962559570       -0.8588177746
 O          4.0632726155        0.5858851391       -2.2143427657
 O          5.8701084219        0.2253755090       -0.5935483464
 C          3.6931027381        1.4473230693        0.2732809696
 C          4.4550897013        1.9973037655        1.2853259756
 C          3.8448366588        2.8390602333        2.2010900176
 C          2.4859637629        3.0967895328        2.1015801562
 C          1.7330765472        2.5317523988        1.0836133053
 C          2.3410366006        1.7030113251        0.1543963609
 H          1.7800031232        1.2509796592       -0.6484295209
 H          0.6699627709        2.7009642848        1.0281412918
 H          2.0051703297        3.7385154956        2.8230075044
 H          4.4263286098        3.2826133378        2.9933878453
 H          5.5052322728        1.7574980897        1.3302047603
 H          4.0784454712       -1.3909565120        0.5350225835
 H          2.8264371418       -1.4614545778       -2.8259840935
 H          0.4581549934       -1.9490662745       -3.3775410354
 H         -1.2027956053       -2.2021510384       -1.5711783582
 H         -0.3750925683       -1.5237110521        1.9989448191
 C         -1.1248933413       -3.4396364609        1.4600380736
 C         -0.8361011078       -4.5938414379        0.5530648990
 C         -0.0127399204       -4.3918535177        1.7875528269
 H         -0.1420437426       -5.0725993374        2.6151272168
 H          1.0000490486       -4.0414542753        1.6563584397
 H         -1.5536759662       -5.3992621502        0.5264345643
 H         -0.3801239815       -4.3903231611       -0.4032213633
 H         -2.0247210941       -3.5194330164        2.0608281211
