  62
        -98.94475102
 C          2.0660795533        1.3192458370       -0.0141843170
 C          2.6912893187        0.7003173426        1.0939097841
 C          3.8342441229       -0.1690685317        0.7857081212
 C          4.2111698120       -0.3291548755       -0.4963195466
 C          5.3176729613       -1.2325621487       -0.9567782948
 C          4.7875250794       -2.6352644494       -1.2858500284
 C          3.9018083330       -3.2334116629       -0.1926884027
 H          2.9855639449       -2.6430549870       -0.1145207008
 H          3.6100042114       -4.2335356668       -0.5209147087
 C          4.5686230142       -3.3216102866        1.1873788647
 H          4.3585660684       -4.3042532716        1.6151753553
 H          5.6508193340       -3.2395183539        1.0810376278
 C          4.0787335919       -2.2819177101        2.1970617310
 H          4.4491844064       -2.5674066339        3.1851982593
 H          2.9865812431       -2.3006483826        2.2406238123
 C          4.5273977656       -0.8377377885        1.9396809077
 H          4.2716247151       -0.2485845609        2.8252582235
 H          5.6107788425       -0.8076220466        1.8083791887
 H          4.2016598891       -2.5771988077       -2.2062472557
 H          5.6393098341       -3.2934187265       -1.4663323205
 H          5.7613308114       -0.8020874217       -1.8560009199
 H          6.0784225681       -1.2928670225       -0.1809488293
 O          3.5858853808        0.2809686573       -1.5349033080
 C          2.4922072165        1.1099223847       -1.3260999668
 O          2.0035392849        1.5871565230       -2.3666692079
 O          2.3057886370        0.8605620682        2.2840898688
 C          0.8704293370        2.2224980513        0.2274455858
 C         -0.3508455350        1.6656068736       -0.4628217329
 C         -1.2213604551        2.4383040413       -1.2196651809
 C         -2.3192585688        1.8599372253       -1.8342394469
 C         -2.5790371612        0.5089236083       -1.7018871582
 C         -1.7270911997       -0.2695777561       -0.9275450896
 C         -0.6315300077        0.3129003737       -0.3094613094
 H          0.0321349247       -0.2971085773        0.2911650753
 N         -1.9847412397       -1.6408326410       -0.7727690125
 S         -3.5618099784       -2.1423224879       -0.5359375634
 O         -3.4538470738       -3.3940874384        0.1800484526
 O         -4.2498561623       -2.1993718559       -1.8015986307
 C         -4.3060036045       -0.8936277624        0.4986947710
 C         -5.4039943955       -0.1894665437        0.0484717736
 C         -5.9498745902        0.7921337361        0.8602265433
 C         -5.3886576637        1.0532682979        2.1003534579
 C         -4.2875523277        0.3343807723        2.5403959953
 C         -3.7391043483       -0.6493050707        1.7339344115
 H         -2.8861921270       -1.2284960590        2.0503237793
 H         -3.8519295424        0.5378711010        3.5055234409
 H         -5.8108360075        1.8205604069        2.7298063733
 H         -6.8073599934        1.3509354871        0.5217939975
 H         -5.8067652863       -0.4235048839       -0.9234923998
 H         -1.3443798817       -2.1174657023       -0.1561770533
 H         -3.4158735326        0.0420334784       -2.1951508568
 H         -2.9796343426        2.4702526544       -2.4308789557
 H         -1.0348269059        3.4925292470       -1.3394205818
 H          0.6942177274        2.1870359057        1.3131055187
 C          1.1942095420        3.6484134034       -0.1652176111
 C          0.5295158063        4.7951816949        0.5342680644
 C          1.9762107789        4.4996359799        0.7883805672
 H          2.7211060210        5.1710210548        0.3882840298
 H          2.2518951798        4.0582858876        1.7351464873
 H          0.2816081831        5.6752748190       -0.0396271801
 H         -0.1785743895        4.5622461117        1.3148744186
 H          1.4163835268        3.7482480551       -1.2216439172
