  62
        -98.94529337
 C         -1.7415178039       -1.1236631580       -0.7740791225
 C         -2.8647361765       -0.5967533374       -0.0846785276
 C         -3.2224507213        0.7960366617       -0.3738507690
 C         -2.4994061963        1.4840324956       -1.2752290801
 C         -2.7198548248        2.9230832425       -1.6398175766
 C         -1.8536854959        3.8517583560       -0.7783501524
 C         -1.9372593610        3.5619406435        0.7204917244
 H         -1.4747275968        2.5914382825        0.9198444298
 H         -1.3216789090        4.3085018315        1.2284043108
 C         -3.3594055507        3.5934734478        1.2984247805
 H         -3.3375889437        4.1438068249        2.2415499735
 H         -4.0209413980        4.1359439716        0.6215674106
 C         -3.9597977383        2.2190033660        1.6011064769
 H         -3.2467446421        1.6323514410        2.1869186374
 H         -4.8503596559        2.3659212142        2.2184311945
 C         -4.3780840369        1.3885345649        0.3810807281
 H         -5.0055908467        1.9914393676       -0.2784784902
 H         -4.9689721481        0.5409860409        0.7407117068
 H         -0.8103123255        3.7363651086       -1.0816341642
 H         -2.1551251038        4.8835545920       -0.9707276761
 H         -2.4488069294        3.0580074600       -2.6885387276
 H         -3.7726285339        3.1677246004       -1.5118153185
 O         -1.4499808241        0.9435595216       -1.9371806112
 C         -1.0096091877       -0.3451267234       -1.6692560294
 O          0.0175341444       -0.6512525866       -2.3081816449
 O         -3.5423602595       -1.2719484213        0.7379025262
 C         -1.3286352106       -2.5361971577       -0.3931052641
 C         -0.4006409470       -2.4752223581        0.7987169211
 C         -0.6435889480       -3.2262935749        1.9416153076
 C          0.1765305399       -3.1015439292        3.0494137323
 C          1.2232357751       -2.1981105925        3.0500509794
 C          1.4753558864       -1.4422554028        1.9092930674
 C          0.6920729632       -1.6201499361        0.7802082711
 H          0.9037561980       -1.0459049144       -0.1056581135
 N          2.5091815144       -0.4946623974        1.8888501820
 S          2.2919960720        1.0244011520        1.1926020885
 O          2.8503205752        1.9534218339        2.1566105508
 O          0.9188075506        1.2482659414        0.8163511832
 C          3.3783418265        0.9773211733       -0.2180813263
 C          4.7201396003        1.2210924282        0.0110595173
 C          5.6061300393        1.1733167143       -1.0516936643
 C          5.1389846624        0.8816127974       -2.3247976084
 C          3.7914700170        0.6400079273       -2.5386508275
 C          2.8981129380        0.6864460960       -1.4781087562
 H          1.8465986719        0.4962402808       -1.6307272765
 H          3.4198085747        0.4112881549       -3.5248856074
 H          5.8266525356        0.8438261657       -3.1549867708
 H          6.6543703475        1.3630447985       -0.8860786878
 H          5.0363192986        1.4583543265        1.0133543772
 H          3.0013926045       -0.4067390724        2.7664656214
 H          1.8374092238       -2.0684343975        3.9285514638
 H         -0.0191228495       -3.6912905273        3.9322017105
 H         -1.4935678827       -3.8918649198        1.9682794041
 H         -2.2529128426       -3.0333389050       -0.0664032173
 C         -0.7179536335       -3.3501785708       -1.5146730927
 C         -0.7966616016       -4.8453335163       -1.4531794923
 C         -1.6152999614       -4.0920169440       -2.4573559173
 H         -1.3362724920       -4.1417517550       -3.4988426279
 H         -2.6808081424       -4.0175872280       -2.2948542934
 H          0.0475320718       -5.4184458175       -1.8039606545
 H         -1.3095726905       -5.2871183403       -0.6124332191
 H          0.1795171203       -2.9093228975       -1.9273807588
