  62
        -98.93388386
 C         -1.7512371046       -0.6203996521        1.1204133741
 C         -1.9380966438       -0.2830214469       -0.2421819259
 C         -3.3158570217       -0.3994187647       -0.7573718677
 C         -4.3021223872       -0.8006534043        0.0612284590
 C         -5.7574517918       -1.0260170304       -0.2636032533
 C         -6.4598181334        0.0315802079       -1.1275487136
 C         -5.9440170819        1.4669396166       -0.9485461274
 H         -6.7938734002        2.1291813705       -0.7723444805
 H         -5.2980841770        1.5269909002       -0.0708231334
 C         -5.1897834334        1.9878989640       -2.1745448263
 H         -5.7378363299        1.6936148441       -3.0723675782
 H         -5.1796785330        3.0800778984       -2.1418326409
 C         -3.7383206661        1.5260334730       -2.3007313903
 H         -3.3612835155        1.8650650818       -3.2685731933
 H         -3.1264332370        2.0083636395       -1.5334070070
 C         -3.5139849778        0.0092766641       -2.1886097859
 H         -2.5801536746       -0.2296815047       -2.7042790534
 H         -4.3233572472       -0.5449914091       -2.6575903012
 H         -6.3793185727       -0.2440739706       -2.1781769773
 H         -7.5204063158       -0.0074738752       -0.8734806033
 H         -6.2563581153       -1.0971627159        0.7058682474
 H         -5.8516760905       -2.0028323698       -0.7467189704
 O         -4.0794850845       -1.0994934881        1.3730283788
 C         -2.8193608547       -0.9984583545        1.9359349620
 O         -2.7813820178       -1.2621260284        3.1548008557
 O         -1.0129674538        0.0892454562       -1.0070503319
 C         -0.3912323277       -0.5126589291        1.7884063269
 C          0.2724449326        0.7837391298        1.3946245736
 C         -0.3738097971        1.9809111695        1.6942018165
 C          0.1865860561        3.1932742866        1.3446417516
 C          1.4145007033        3.2395559467        0.7073296788
 C          2.0694052637        2.0520177752        0.4085126439
 C          1.4960200417        0.8342890657        0.7481171327
 H          2.0096176564       -0.0747717102        0.4857102507
 N          3.3038499767        2.0603873447       -0.2553056751
 S          4.4798249929        0.9437385351        0.1408323776
 O          4.4570969180        0.6211273279        1.5492820023
 O          5.7121883078        1.5226071857       -0.3523292739
 C          4.1030667265       -0.5040060465       -0.8246505828
 C          3.6028662560       -0.3557873198       -2.1026729392
 C          3.3577235593       -1.4900896978       -2.8598031798
 C          3.6237600451       -2.7453118712       -2.3347331675
 C          4.1301674860       -2.8772102627       -1.0508031388
 C          4.3729027261       -1.7467830970       -0.2863296372
 H          4.7540037604       -1.8042865913        0.7209843563
 H          4.3341656964       -3.8543691606       -0.6421708655
 H          3.4313175825       -3.6260959570       -2.9269065990
 H          2.9577881804       -1.3913797797       -3.8560668274
 H          3.4015055279        0.6326276211       -2.4800931023
 H          3.6897809838        2.9739411125       -0.4421209047
 H          1.8570817995        4.1862192425        0.4365017368
 H         -0.3312602774        4.1122876982        1.5758090469
 H         -1.3316922146        1.9445207316        2.1967309017
 H         -0.6083890322       -0.4601946771        2.8688055911
 C          0.5019635435       -1.7273008904        1.5853402131
 C         -0.0853993960       -3.0967237267        1.4234051165
 C          0.6032530736       -2.4355610169        0.2692594703
 H          1.5695892974       -2.8094921071       -0.0359449731
 H          0.0044021472       -2.0609068688       -0.5450657957
 H          0.4051153934       -3.9245341548        1.9128948888
 H         -1.1624837457       -3.1786244342        1.4023292646
 H          1.4116652389       -1.6608044575        2.1758107964
