  62
        -98.93875535
 C         -1.8644006421       -0.6649294399        0.8830170184
 C         -2.1992045614        0.7120845973        0.8041851875
 C         -3.6235356905        1.0345905230        0.6552142979
 C         -4.5205681844        0.0328212417        0.6221901735
 C         -5.9980279515        0.2085950376        0.4255373474
 C         -6.3719652876        0.1420579353       -1.0617858897
 C         -5.5069941589        1.0302890262       -1.9561971686
 H         -5.8812192323        0.9261186410       -2.9770007219
 H         -4.4819002922        0.6524070232       -1.9500956031
 C         -5.5016329263        2.5140312703       -1.5624019638
 H         -6.3537153912        2.7287926282       -0.9164257782
 H         -5.6201673807        3.1160545387       -2.4658063627
 C         -4.2162288757        2.9845978989       -0.8790655682
 H         -4.2302134647        4.0772399982       -0.8452819045
 H         -3.3522380731        2.6865314543       -1.4784930930
 C         -4.0017509147        2.4854928590        0.5554214918
 H         -4.8906246729        2.6941023672        1.1543833505
 H         -3.1615521219        3.0430495416        0.9793233561
 H         -7.4204163042        0.4269174433       -1.1673502085
 H         -6.2649642901       -0.8913596905       -1.3996394927
 H         -6.5135937161       -0.5931489376        0.9569431952
 H         -6.3036419910        1.1648905094        0.8456697315
 O         -4.1690841834       -1.2726737495        0.7186456629
 C         -2.8377734134       -1.6641918478        0.8314272966
 O         -2.6878104208       -2.8978982386        0.8764895191
 H          1.9818360017       -0.0160164095        0.2240984730
 C          1.5244975626       -0.6255719676       -0.5395634023
 C          0.2784067588       -1.1898311520       -0.3102716496
 C         -0.3101355095       -1.9451601496       -1.3188939307
 C          0.3428682891       -2.1311658055       -2.5240068006
 C          1.6002780021       -1.5933428364       -2.7361343607
 C          2.1981779729       -0.8389587636       -1.7339199344
 N          3.4710629944       -0.2795164246       -1.9077553550
 S          4.5526678517       -0.2915275782       -0.6268177643
 O          5.8557792836       -0.2149503752       -1.2507933552
 O          4.3249516496       -1.4213223046        0.2423774547
 C          4.2326251248        1.2320929110        0.2347517517
 C          4.2796750962        2.4104412839       -0.4835205462
 C          4.0425234619        3.6054463378        0.1758907417
 C          3.7660512914        3.6021449357        1.5348680233
 C          3.7264573718        2.4109367184        2.2426411842
 C          3.9626716190        1.2120489687        1.5886125359
 H          3.9347757186        0.2628601458        2.1010796822
 H          3.5090992585        2.4097912031        3.2988031658
 H          3.5786594037        4.5330242897        2.0464116780
 H          4.0711179901        4.5346919397       -0.3700155979
 H          4.5005385976        2.3723119034       -1.5371488456
 H          3.9196289410       -0.5045399641       -2.7837346240
 H          2.1152015562       -1.7555979758       -3.6709404561
 H         -0.1255531229       -2.7162678031       -3.3013193884
 H         -1.2769709816       -2.3935158142       -1.1452512650
 C         -0.3888995804       -0.9881797628        1.0260623614
 H          0.0522451482       -0.0822410347        1.4727158156
 C         -0.1072575655       -2.1392558929        1.9818411912
 C          0.2909554841       -3.5093731437        1.5329414509
 C          1.2956391741       -2.6241892624        2.2041811049
 H          1.6010303881       -2.8646041719        3.2117345179
 H          2.0859438010       -2.2115373371        1.5930144973
 H          0.3955815533       -3.6872801511        0.4742071841
 H         -0.1133814721       -4.3514662489        2.0734346254
 H         -0.7460205953       -2.0939565399        2.8587718965
 O         -1.3390225169        1.6316029115        0.8643433566
