  62
        -98.94378605
 C         -2.6198720114       -0.0305383171       -0.4146640809
 C         -2.2461755575       -0.5830017275        0.8348364005
 C         -1.8894457722       -2.0068645309        0.8207330210
 C         -1.9164480666       -2.6928994766       -0.3361827693
 C         -1.6363491236       -4.1621045568       -0.5044696436
 C         -0.1471423211       -4.5128004209       -0.6194676901
 C          0.6434010609       -4.4179845227        0.6857084983
 H          0.1213120034       -4.9673034710        1.4699875874
 H          1.6007699139       -4.9153442080        0.5184165821
 C          0.9130112357       -2.9807834665        1.1509146827
 H          1.9565254424       -2.8833335576        1.4619752196
 H          0.7789120504       -2.2887188894        0.3159944998
 C          0.0564968465       -2.5066454653        2.3251287642
 H          0.3253246666       -3.0662688124        3.2247829504
 H          0.2915415850       -1.4522542540        2.4957369718
 C         -1.4566807069       -2.6352636658        2.1104627469
 H         -1.7521816365       -3.6845263146        2.1407828383
 H         -1.9609246883       -2.1035030406        2.9215056656
 H          0.3101727220       -3.8574252537       -1.3647456480
 H         -0.0818762222       -5.5391770875       -0.9884326425
 H         -2.0773274429       -4.7133726877        0.3269275892
 H         -2.1343638535       -4.4665143931       -1.4277621459
 O         -2.2515676189       -2.1160434599       -1.5219496333
 C         -2.5778963034       -0.7723890983       -1.5935952079
 O         -2.8182436968       -0.3616709743       -2.7495062889
 H         -0.4861767012        1.0976932228       -1.3456657429
 C         -0.5447056597        1.9105158213       -0.6307199555
 C         -1.7769730187        2.2557518588       -0.0899455910
 C         -1.8222214002        3.2999188959        0.8241008243
 C         -0.6603916141        3.9466472776        1.2120849316
 C          0.5693263226        3.5648631393        0.7049545975
 C          0.6176777701        2.5443581974       -0.2316258476
 N          1.8857730025        2.0885206685       -0.7194958051
 S          2.1752985729        0.5041448561       -0.1943113361
 O          1.6330299913       -0.4488118169       -1.1438069739
 O          1.7343726521        0.4017318061        1.1720255563
 C          3.9568904572        0.4570025412       -0.2519692137
 C          4.6512129987        1.1452053465        0.7243462807
 C          6.0356778280        1.1582001210        0.6799068555
 C          6.6999718927        0.4876477649       -0.3367654473
 C          5.9897304870       -0.1993489931       -1.3090026180
 C          4.6037899204       -0.2147094119       -1.2700251873
 H          4.0106278552       -0.7396864658       -2.0016943309
 H          6.5080528724       -0.7215301122       -2.0971198998
 H          7.7779310053        0.4991995525       -0.3704315792
 H          6.5911970378        1.6900033011        1.4354215050
 H          4.0893223623        1.6441247514        1.4965112818
 H          1.9151770455        2.0813883363       -1.7313155514
 H          1.4832612565        4.0378403546        1.0245490411
 H         -0.7135083577        4.7460105738        1.9354089420
 H         -2.7677062539        3.5940361065        1.2502557518
 C         -2.9755311088        1.4435324382       -0.5168319614
 H         -3.1604349347        1.6385381235       -1.5838007905
 C         -4.2338671312        1.7525960918        0.2651111263
 C         -5.1103791218        2.8972584792       -0.1436929737
 C         -5.5640296422        1.4874715327       -0.3712439096
 H         -6.3591161767        1.0933232989        0.2433611904
 H         -5.5618732516        1.1031156417       -1.3811157610
 H         -5.5998848514        3.4726588229        0.6272732324
 H         -4.8080558706        3.4758162254       -1.0034587191
 H         -4.1308188958        1.5328064896        1.3212011513
 O         -2.2334393638        0.0715640099        1.9096792475
