  62
        -98.93276476
 C         -1.8165298671       -0.7097707019        0.8065433986
 C         -2.2097465047        0.6411478352        0.6423523315
 C         -3.6471286892        0.9173841520        0.4573227768
 C         -4.5062275598       -0.1183266254        0.4637064768
 C         -5.9992679082       -0.0986683682        0.2676558427
 C         -6.4027121006        0.1039498039       -1.2011807300
 C         -5.6258916069        1.1939047509       -1.9346184571
 H         -4.5609212893        0.9567160579       -1.9042636918
 H         -5.9331020740        1.1713546222       -2.9835932500
 C         -5.8459882700        2.6122285928       -1.4137208061
 H         -6.9102164338        2.8524731290       -1.4671103763
 H         -5.3186075655        3.2900896481       -2.0897679484
 C         -5.3547754080        2.8871710843        0.0095646608
 H         -6.0496353558        2.4970033233        0.7484594716
 H         -5.3379812088        3.9727717693        0.1431977873
 C         -3.9427966622        2.3897724346        0.3025021462
 H         -3.2634336963        2.7553179117       -0.4759165417
 H         -3.5930204634        2.8576056802        1.2305671290
 H         -7.4705617191        0.3264933274       -1.2377175241
 H         -6.2360311614       -0.8375358291       -1.7304069955
 H         -6.4496130106        0.6603273127        0.9004482766
 H         -6.3705398135       -1.0710660161        0.5990073335
 O         -4.0855146063       -1.4040333653        0.6247340194
 C         -2.7514135972       -1.7452665700        0.7895406370
 O         -2.5610855405       -2.9690990866        0.9059889368
 O         -1.3854524543        1.5957507055        0.6536031144
 C         -0.3338493339       -0.9631592121        1.0019966718
 C          0.3755926068       -1.2301110346       -0.3005846296
 C         -0.1586510628       -2.0712931698       -1.2706884363
 C          0.5345723395       -2.3148059252       -2.4426769559
 C          1.7791977596       -1.7491523375       -2.6577490750
 C          2.3229186346       -0.9089110241       -1.6937513665
 C          1.6085613235       -0.6395831886       -0.5349210083
 H          2.0234288304        0.0354351180        0.1972778823
 N          3.5815780919       -0.3186023107       -1.8707895504
 S          4.6273701911       -0.2182884269       -0.5640222331
 O          5.9441820170       -0.1359095374       -1.1577782228
 O          4.4109638678       -1.3011317614        0.3657461416
 C          4.2365541074        1.3422080266        0.1964545054
 C          3.9266206319        1.3917251051        1.5409836998
 C          3.6351593237        2.6181955420        2.1168665931
 C          3.6607202817        3.7673551861        1.3420900896
 C          3.9781545389        3.7010658889       -0.0062968818
 C          4.2706109984        2.4781602278       -0.5877904500
 H          4.5246515999        2.3866057992       -1.6305948528
 H          3.9957812400        4.5977937875       -0.6045431069
 H          3.4301640976        4.7198263337        1.7926620830
 H          3.3860818682        2.6707608830        3.1646959112
 H          3.9115760815        0.4731867497        2.1070199626
 H          4.0613661718       -0.5849236072       -2.7182381252
 H          2.3257955689       -1.9559470906       -3.5653921841
 H          0.1080633573       -2.9666628738       -3.1904059318
 H         -1.1148275307       -2.5403086684       -1.0929517683
 H          0.0616861951       -0.0125473378        1.3951995522
 C         -0.0365504886       -2.0353582628        2.0413679268
 C          0.4156682527       -3.4188764901        1.6970517126
 C          1.3752976616       -2.4567806158        2.3272108666
 H          1.6635234065       -2.6173639278        3.3555130540
 H          2.1667706464       -2.0610181642        1.7065165020
 H          0.0254225203       -4.2351454110        2.2854155851
 H          0.5509309998       -3.6649654871        0.6555857914
 H         -0.6971340204       -1.9516550397        2.8992082960
