  62
        -98.93998810
 C          2.1109466508        1.4392478052        0.5375308040
 C          2.0613951670        0.2348245518        1.2864968124
 C          3.1074831760       -0.7514848052        1.0037596394
 C          4.0572223738       -0.4687747456        0.0941135290
 C          5.2045566428       -1.3612567677       -0.2944012634
 C          4.8456291076       -2.4070174079       -1.3591325413
 C          3.9591614014       -3.5542631044       -0.8725992485
 H          3.9686132463       -4.3178052494       -1.6530017883
 H          4.3996737498       -3.9976123850        0.0209567808
 C          2.5038362873       -3.1549887418       -0.5896798747
 H          2.2881759525       -2.1967522829       -1.0678760884
 H          1.8329764770       -3.8913606829       -1.0369469639
 C          2.1487281883       -3.0567348442        0.8941587257
 H          2.2211362139       -4.0441013079        1.3554967787
 H          1.1138281346       -2.7154176377        0.9744166462
 C          3.0264501931       -2.0815186292        1.6892863826
 H          4.0228123102       -2.4985897245        1.8338952350
 H          2.5663465507       -1.9239400689        2.6677886394
 H          5.7826965666       -2.8307578027       -1.7279029945
 H          4.3588332749       -1.8999090660       -2.1954082243
 H          5.9824329497       -0.7104058880       -0.6995821350
 H          5.5969386512       -1.8611155045        0.5916688633
 O          4.0871874341        0.7062552300       -0.5855697872
 C          3.0973506188        1.6715750749       -0.4215187416
 O          3.2345997124        2.6549252168       -1.1711206572
 O          1.1800124150        0.0021624569        2.1566979344
 C          0.9882737863        2.4275518071        0.7996918124
 C         -0.2111317034        2.0309312220       -0.0231227552
 C         -0.1097035969        1.8620173235       -1.4008961257
 C         -1.2085919909        1.4640156714       -2.1397755632
 C         -2.4223334104        1.2136003107       -1.5225216950
 C         -2.5283769534        1.3606338791       -0.1461222264
 C         -1.4259635853        1.7733951521        0.5927679915
 H         -1.5097586148        1.8765850712        1.6658066732
 N         -3.7512923537        1.0989352385        0.4931005859
 S         -4.6080325746       -0.2776027911        0.0790831658
 O         -5.2321226643       -0.0860715447       -1.2058662973
 O         -5.5008912697       -0.5066086454        1.1918739151
 C         -3.3957030434       -1.5816767314       -0.0196056221
 C         -2.8334745268       -2.0346707242        1.1575844299
 C         -1.8745777092       -3.0323071935        1.1028758695
 C         -1.4909612064       -3.5527978747       -0.1238242506
 C         -2.0620825833       -3.0852880250       -1.2969322721
 C         -3.0248048835       -2.0897159035       -1.2477579626
 H         -3.4997306116       -1.7072230025       -2.1362453236
 H         -1.7604006125       -3.4923342251       -2.2485998282
 H         -0.7433026934       -4.3293608505       -0.1628093235
 H         -1.4265902557       -3.3954764710        2.0140956064
 H         -3.1610985934       -1.6149626343        2.0951215735
 H         -3.7200436403        1.2127270539        1.4956828547
 H         -3.2878671579        0.9083516391       -2.0872145555
 H         -1.1202875321        1.3445632046       -3.2090624900
 H          0.8405264220        2.0455425344       -1.8810404789
 H          0.7228376266        2.2761471081        1.8583786926
 C          1.3833287769        3.8867497390        0.6395222024
 C          0.8601533682        4.7755114470       -0.4447037878
 C          0.3884946052        4.9621940916        0.9641769903
 H          0.7210329078        5.8289136165        1.5149443951
 H         -0.6195694117        4.6510107625        1.1953744554
 H          1.5411534442        5.4982181710       -0.8674006987
 H          0.1685873350        4.3611787315       -1.1611537180
 H          2.4079846238        4.0651509606        0.9476145622
