  62
        -98.92814420
 C         -2.4419528101       -0.5660099846        0.9935840009
 C         -3.5059040427       -1.0004520905        0.1692966455
 C         -4.7505637385       -0.1990294631        0.2115783682
 C         -4.8035707893        0.8890934149        1.0003453716
 C         -5.9335180844        1.8696659474        1.1725376848
 C         -6.0649935091        2.8391151767       -0.0123892197
 C         -5.9655633502        2.1863279537       -1.3883215391
 H         -5.9766989826        2.9840534945       -2.1358156824
 H         -5.0040960915        1.6767804463       -1.4744040019
 C         -7.0906248603        1.2115232660       -1.7279969107
 H         -6.9507311689        0.9061950765       -2.7681654943
 H         -8.0484531748        1.7322823333       -1.6615438042
 C         -7.1624837386       -0.0536057724       -0.8695733540
 H         -7.8234584128       -0.7576224552       -1.3836415600
 H         -7.6199423345        0.1493974668        0.0950544097
 C         -5.8288454680       -0.7688243895       -0.6789911826
 H         -6.0252921522       -1.7761284788       -0.2922005376
 H         -5.3626933509       -0.9252409103       -1.6585254126
 H         -5.2633837453        3.5778683370        0.0643924199
 H         -7.0175454874        3.3643785377        0.0762860853
 H         -5.7095577582        2.4483674283        2.0714523442
 H         -6.8660186256        1.3402155142        1.3437769101
 O         -3.7441475825        1.2796162415        1.7668821949
 C         -2.5584559063        0.5775289289        1.7872045761
 O         -1.6909530558        1.0533338901        2.5484727992
 O         -3.4509866593       -2.0075129614       -0.5821954838
 C         -1.1038493200       -1.2812448475        1.0815755178
 C         -0.1568140450       -0.7730960031        0.0246139664
 C         -0.5215140464       -0.7426738050       -1.3176709946
 C          0.3636174174       -0.2766873995       -2.2727758211
 C          1.6216317604        0.1736054610       -1.9125741435
 C          1.9939630596        0.1527910596       -0.5752739566
 C          1.1067006790       -0.3259585971        0.3814209311
 H          1.3952621978       -0.3318004737        1.4241283626
 N          3.2609866251        0.6335096139       -0.1962380644
 S          4.5837276200        0.1240720293       -1.1178367089
 O          4.6454606475        0.9280201935       -2.3122077568
 O          4.5201921861       -1.3061003824       -1.3214867738
 C          5.9337418003        0.5429784923       -0.0339596065
 C          6.4770123140       -0.4330658956        0.7796530028
 C          7.5106856552       -0.0910188811        1.6373574242
 C          7.9778608099        1.2143148793        1.6689216412
 C          7.4215650493        2.1829707137        0.8465146620
 C          6.3888605229        1.8477139184       -0.0144737775
 H          5.9325589471        2.5640695959       -0.6774276864
 H          7.7891281545        3.1960688909        0.8731164021
 H          8.7823850357        1.4778055896        2.3372076920
 H          7.9468845445       -0.8421792772        2.2760068130
 H          6.0886934575       -1.4369867376        0.7152512717
 H          3.4373361754        0.4989453225        0.7902916361
 H          2.3198707928        0.5358191549       -2.6497795833
 H          0.0712270239       -0.2625083817       -3.3123310402
 H         -1.5014956268       -1.0943458675       -1.6028562591
 H         -0.6911265771       -0.9881640640        2.0601742003
 C         -1.2338288879       -2.7984983645        1.0887222341
 C         -0.7954174325       -3.6819612247       -0.0360376477
 C         -0.0087361438       -3.6520727477        1.2375302211
 H         -0.0479617094       -4.5070394091        1.8953295026
 H          0.9493756468       -3.1538184198        1.2150091603
 H         -1.4028510885       -4.5464877973       -0.2558819056
 H         -0.3625688824       -3.2237589959       -0.9112619798
 H         -2.1165762100       -3.1216003184        1.6311344636
