  62
        -98.94091829
 C         -2.3078070116        0.4207596966       -0.2473729153
 C         -3.5547937043        0.9433063193       -0.6660113807
 C         -4.6871705088        0.0088665075       -0.6317748487
 C         -4.4797841065       -1.2597986281       -0.2335665214
 C         -5.5526866816       -2.3006775431       -0.0992041241
 C         -6.1475507982       -2.3059091977        1.3160364892
 C         -6.5491916032       -0.9206020216        1.8225868374
 H         -6.9826266699       -1.0510832885        2.8165416925
 H         -5.6505315806       -0.3109175990        1.9420464416
 C         -7.5479749919       -0.1802332291        0.9221366311
 H         -8.3250419699        0.2607010034        1.5499741689
 H         -8.0363089796       -0.8874969249        0.2508968182
 C         -6.9386489481        0.9583522795        0.1021421989
 H         -6.3680029068        1.6188257199        0.7598797182
 H         -7.7560669094        1.5465558980       -0.3232195744
 C         -6.0301582850        0.5321879800       -1.0579474582
 H         -6.5483910510       -0.1983491212       -1.6822381667
 H         -5.8262295048        1.4200421151       -1.6635673622
 H         -5.4040991703       -2.7187246704        2.0019192235
 H         -7.0181579385       -2.9642493949        1.3219242983
 H         -5.1105071181       -3.2775986544       -0.3015062182
 H         -6.3335177886       -2.1066065688       -0.8319482484
 O         -3.2622913687       -1.7315300669        0.1408718190
 C         -2.1475392151       -0.9056159143        0.1521397369
 O         -1.0979902724       -1.4642998040        0.5258580923
 O         -3.7107748703        2.1320267278       -1.0553275649
 C         -1.0974596216        1.3354667827       -0.2346719760
 C          0.0053312264        0.7674099365       -1.0930739927
 C         -0.2997555245        0.3279739689       -2.3791012272
 C          0.6794739074       -0.2057485415       -3.1931555096
 C          1.9840863317       -0.3112784981       -2.7438493105
 C          2.3044860803        0.1427274575       -1.4702636121
 C          1.3181441326        0.6843628745       -0.6567766929
 H          1.5912004222        1.0215978367        0.3282164890
 N          3.6370505248        0.0989899378       -1.0213160270
 S          3.9915399758       -0.2302931166        0.5952382637
 O          3.4304117000       -1.5029332561        0.9914100921
 O          3.6335853304        0.9099325782        1.3997199999
 C          5.7684288217       -0.3476751457        0.4862892374
 C          6.3703888545       -1.5903015130        0.4310608603
 C          7.7500888976       -1.6628572234        0.3177740178
 C          8.4998706993       -0.4979110002        0.2582959766
 C          7.8815586077        0.7424482537        0.3158883169
 C          6.5029304210        0.8218419258        0.4304977394
 H          5.9794641008        1.7617946907        0.4873236820
 H          8.4681265847        1.6459009905        0.2721322794
 H          9.5731466978       -0.5571449303        0.1698119698
 H          8.2335821939       -2.6256179409        0.2765942371
 H          5.7476738978       -2.4687481850        0.4891314777
 H          4.2219157177       -0.4658367456       -1.6232701226
 H          2.7477984501       -0.7383974571       -3.3761141385
 H          0.4250839463       -0.5508587767       -4.1841891911
 H         -1.3213814350        0.4017781743       -2.7270668559
 H         -1.4376988321        2.2772248517       -0.6920281028
 C         -0.6676612422        1.6165028268        1.1898802418
 C          0.0053086187        2.9099259722        1.5357742945
 C         -1.4014997120        2.6539895312        1.9835581150
 H         -1.5864199661        2.4667531678        3.0307522056
 H         -2.2006336814        3.1832096279        1.4850759248
 H          0.7960089847        2.8950863308        2.2710818976
 H          0.1611606757        3.6189642644        0.7367563098
 H         -0.3476521716        0.7204721762        1.7125465100
