  62
        -98.94256904
 C         -0.0591310592       -1.9800348872        0.2482936414
 C          1.1023084794       -2.4735747161       -0.3834745196
 C          2.3819633273       -1.8637138936        0.0199222901
 C          2.3705621363       -0.8666813463        0.9220101242
 C          3.5340844162       -0.0391742589        1.3945835289
 C          3.6960627818        1.2082817776        0.5079238941
 C          4.6233846945        1.0276802004       -0.6913658985
 H          4.5899698932        1.9544099486       -1.2692912754
 H          5.6495502060        0.8899305209       -0.3429980695
 C          4.2485327371       -0.1340795856       -1.6138410210
 H          3.1658818069       -0.1396115955       -1.7612515730
 H          4.7029730992        0.0495594273       -2.5897456239
 C          4.7225565011       -1.4978745713       -1.0907971648
 H          5.2685954549       -2.0176357570       -1.8812266052
 H          5.4304184787       -1.3427228062       -0.2767810106
 C          3.6064272603       -2.4452637908       -0.6341891759
 H          4.0328700753       -3.1956546414        0.0410704873
 H          3.2212379572       -2.9916403732       -1.5013939952
 H          2.7049895083        1.4960825166        0.1467267107
 H          4.0813620618        2.0282645331        1.1175193349
 H          3.2945663571        0.2804672103        2.4105783247
 H          4.4467083228       -0.6274330640        1.4179159596
 O          1.2260806679       -0.4203733355        1.5101831531
 C         -0.0085864963       -0.9599877821        1.1988474323
 O         -0.9633489964       -0.4590184521        1.8211183398
 O          1.0720472086       -3.3830130428       -1.2595529973
 C         -1.4138316661       -2.5237172244       -0.1606956544
 C         -2.3326959399       -1.4074649498       -0.5963620769
 C         -3.7153699489       -1.4852835309       -0.4711743381
 C         -4.5160624622       -0.4267784293       -0.8642241648
 C         -3.9600159587        0.7415806876       -1.3535881717
 C         -2.5774113846        0.8286473496       -1.4810828828
 C         -1.7852169264       -0.2557640225       -1.1433200465
 H         -0.7171610667       -0.1770014641       -1.2734573352
 N         -1.9642344704        2.0068020646       -1.9395854170
 S         -0.5066168304        2.5469408483       -1.3403441281
 O         -0.3664097562        3.8707976859       -1.9134622099
 O          0.5532122239        1.6225748294       -1.6641738869
 C         -0.6108719979        2.7285856866        0.4352419351
 C         -1.7414014083        2.4375027988        1.1676519601
 C         -1.7143016156        2.6317132745        2.5406553851
 C         -0.5698723850        3.1095842934        3.1550084374
 C          0.5566173679        3.4071684411        2.4038610583
 C          0.5340176553        3.2190140864        1.0332094149
 H          1.3847295503        3.4429917390        0.4087252563
 H          1.4499450337        3.7795916785        2.8794825272
 H         -0.5530465574        3.2473379122        4.2248051484
 H         -2.5884787192        2.3920036585        3.1239230498
 H         -2.6228225236        2.0430814505        0.6902583792
 H         -2.5902963622        2.7803223808       -2.1095708813
 H         -4.5826714603        1.5796488295       -1.6277776122
 H         -5.5882205346       -0.5031083150       -0.7667549632
 H         -4.1648818462       -2.3744217169       -0.0599799165
 H         -1.2222523639       -3.1783270289       -1.0247648649
 C         -2.0079852780       -3.3580703386        0.9583420239
 C         -2.8152285465       -4.5840822658        0.6547786108
 C         -1.4364899150       -4.7172675541        1.2256207850
 H         -1.3267754011       -5.0393469505        2.2502032895
 H         -0.6420926466       -5.0533249108        0.5750659366
 H         -3.6552822226       -4.8187245303        1.2911419760
 H         -2.9569981824       -4.8481845740       -0.3824955777
 H         -2.2899833016       -2.7562844450        1.8151218623
