  62
        -98.93065842
 C         -2.3638872500       -0.7809827508        0.3530185791
 C         -3.6441801200       -0.8038448113        0.9591002391
 C         -4.7969709500       -0.4685435806        0.1051647194
 C         -4.5850672701       -0.1193904394       -1.1772207603
 C         -5.5503228401        0.2343480316       -2.2894491899
 C         -7.0169558101        0.5277915513       -1.9859798296
 C         -7.2605210201        1.8196361906       -1.2060911685
 H         -8.3208784501        1.8704242104       -0.9495310884
 H         -7.0355063801        2.6663863912       -1.8595075577
 C         -6.4327125700        1.9889928895        0.0654340916
 H         -6.6910099500        2.9557814691        0.5062480725
 H         -5.3714841600        2.0267842497       -0.1896988784
 C         -6.6491560200        0.9196484685        1.1341707507
 H         -7.7111313000        0.8536449983        1.3786212907
 H         -6.1184681900        1.2416107277        2.0344059210
 C         -6.1403268900       -0.4870061212        0.7763599794
 H         -6.8651129100       -1.0275300906        0.1722890490
 H         -6.0094226100       -1.0442495120        1.7086645089
 H         -7.4724907801       -0.3173299892       -1.4783858304
 H         -7.5210904101        0.6259209621       -2.9512426195
 H         -5.5032874901       -0.6004695378       -2.9974690107
 H         -5.1107995901        1.0959953920       -2.8021123492
 O         -3.3292034401       -0.0764037290       -1.7086999703
 C         -2.1935372801       -0.3895811596       -0.9745266506
 O         -1.1356451701       -0.2786563491       -1.6199653005
 O         -3.8217475300       -1.0989998324        2.1714302988
 C         -1.1674646700       -1.1158233616        1.2258370887
 C         -0.1110941500       -0.0502197215        1.0788757796
 C         -0.3861310400        1.2289876081        1.5549126608
 C          0.5408889800        2.2454344982        1.4295361517
 C          1.7629053400        2.0093535588        0.8250128814
 C          2.0477065700        0.7378806092        0.3473041003
 C          1.1182296400       -0.2862513509        0.4857840994
 H          1.3444744500       -1.2651771206        0.0924806985
 N          3.2777472300        0.4983432798       -0.2893955600
 S          4.6597232200        1.1620735391        0.4160527306
 O          4.6291783100        0.9622218278        1.8480605404
 O          4.7900221600        2.5293402195       -0.0226513282
 C          5.9381815500        0.1655511998       -0.3240459204
 C          6.4071367899        0.5060400309       -1.5785763801
 C          7.3837702199       -0.2833002386       -2.1647674508
 C          7.8711780899       -1.3937555692       -1.4915916518
 C          7.3910087100       -1.7223753203       -0.2327338421
 C          6.4137527200       -0.9377763408        0.3590907086
 H          6.0188423000       -1.1493114717        1.3398942585
 H          7.7740963900       -2.5845192508        0.2891507871
 H          8.6323401999       -2.0054927388       -1.9495773024
 H          7.7616214599       -0.0297957377       -3.1421023706
 H          6.0049486599        1.3822364613       -2.0597768393
 H          3.4065718000       -0.4761070100       -0.5235027209
 H          2.4973389600        2.7917229489        0.7183687121
 H          0.3120394100        3.2326188779        1.8031166725
 H         -1.3441369500        1.4177195977        2.0209585310
 H         -1.5600662700       -1.0591644025        2.2548489488
 C         -0.6333007200       -2.5289071314        1.0492529074
 C         -1.5559811900       -3.6567056311        0.6982980765
 C         -0.5255541400       -3.1978345502       -0.2872395232
 H          0.3249755099       -3.8386752801       -0.4701981737
 H         -0.8486594601       -2.6435757995       -1.1541257026
 H         -1.4150228700       -4.6083814115        1.1881782656
 H         -2.5906929000       -3.4120690209        0.5071225567
 H          0.1480449000       -2.7536341821        1.7695442572
