  62
        -98.94043646
 C         -2.5523783494       -1.2714868324        0.1385517266
 C         -3.3889246534       -0.5870418155        1.0597408182
 C         -4.3285317834        0.3846172278        0.4919069805
 C         -4.3791111857        0.5590201196       -0.8406802889
 C         -5.2994194738        1.4923963929       -1.5792412020
 C         -4.7895898128        2.9380822217       -1.6568157909
 C         -4.8574140789        3.7231173413       -0.3461693173
 H         -4.6788365965        4.7717814184       -0.5920594230
 H         -5.8643670491        3.6524721930        0.0661344998
 C         -3.8341067336        3.2829755711        0.7102619623
 H         -3.0470903990        2.6939459042        0.2332429301
 H         -3.3551048139        4.1643238907        1.1425225474
 C         -4.4233277622        2.4752997251        1.8669206046
 H         -3.6062902814        2.1847706319        2.5322120844
 H         -5.1153651831        3.1005139978        2.4352881434
 C         -5.1591000453        1.1995743583        1.4364444431
 H         -6.1162970285        1.4520304078        0.9806949552
 H         -5.3426013520        0.5922075928        2.3260007239
 H         -3.7598549138        2.9260763414       -2.0218295553
 H         -5.3988025637        3.4585513820       -2.3994405553
 H         -6.2858181996        1.4773591600       -1.1148768618
 H         -5.3872356795        1.1029336447       -2.5958618737
 O         -3.5816067745       -0.1332510927       -1.6947634099
 C         -2.6321248487       -1.0399214846       -1.2349650402
 O         -1.9532801869       -1.5476028574       -2.1485511876
 O         -3.3547216591       -0.7890243846        2.3024289119
 C         -1.5690217810       -2.2660485945        0.7296523195
 C         -0.2193724988       -1.6367735803        0.9655736704
 C          0.4336423535       -1.7776911058        2.1842359650
 C          1.6821705251       -1.2140087635        2.3828967381
 C          2.3018593156       -0.4972812467        1.3750077115
 C          1.6574717754       -0.3495704025        0.1534917534
 C          0.4071584852       -0.9180219598       -0.0431882507
 H         -0.0833390399       -0.8126764823       -1.0002159021
 N          2.2707337915        0.3883440269       -0.8750328336
 S          3.8439164615       -0.0248640409       -1.2974533043
 O          4.0008191532        0.4165817581       -2.6657766590
 O          4.1104643469       -1.4206442276       -1.0366338516
 C          4.8476965077        0.9978297473       -0.2407023857
 C          4.6245109653        2.3608496113       -0.2537394027
 C          5.4031863574        3.1738245438        0.5542075292
 C          6.3879738910        2.6136644610        1.3545430157
 C          6.6016286637        1.2437989396        1.3538059706
 C          5.8254547763        0.4245918900        0.5484752704
 H          5.9509173858       -0.6460049105        0.5194911391
 H          7.3676037790        0.8105102505        1.9766161520
 H          6.9921043173        3.2489825844        1.9827711865
 H          5.2396678706        4.2394949629        0.5576672043
 H          3.8506160226        2.7552400039       -0.8911015210
 H          1.6957892182        0.4685101763       -1.7019928969
 H          3.2737808366       -0.0560448215        1.5237722468
 H          2.1780975865       -1.3316843805        3.3341085478
 H         -0.0482023953       -2.3256562667        2.9806230235
 H         -1.9905155733       -2.5182400466        1.7156614056
 C         -1.4789081750       -3.5611016472       -0.0672238887
 C         -0.2792538216       -3.9689121201       -0.8638184870
 C         -0.6049875112       -4.6821354910        0.4121727775
 H         -0.9824835548       -5.6920191690        0.3612334013
 H          0.0298576499       -4.4876966372        1.2634199553
 H         -0.4516870413       -4.4713857829       -1.8036078581
 H          0.5793471804       -3.3149819389       -0.8793744125
 H         -2.4412272482       -3.8419350288       -0.4840100321
