  62
        -98.93683616
 C         -1.2435664707       -1.2523374593        0.5422985792
 C         -2.0996080004       -0.9351585692       -0.5370447109
 C         -3.3241628000       -0.1699399084       -0.2146212213
 C         -3.5184619398        0.2480881322        1.0491089786
 C         -4.6582828194        1.0606042830        1.6054841683
 C         -4.5711046585        2.5464873128        1.2265921278
 C         -4.2523304982        2.8150657922       -0.2415081522
 H         -4.1393188676        3.8957781021       -0.3632534626
 H         -3.2891834485        2.3630955615       -0.4872009120
 C         -5.3103446384        2.3391756225       -1.2346645422
 H         -6.2680450882        2.8018150831       -0.9863973224
 H         -5.0120097781        2.7026427920       -2.2212935223
 C         -5.5075143293        0.8240056626       -1.3296814817
 H         -6.1214286496        0.4524707332       -0.5134203617
 H         -6.0637139793        0.6261762626       -2.2505052117
 C         -4.2140106098        0.0210418618       -1.4194411814
 H         -4.4555612803       -0.9907944082       -1.7669167711
 H         -3.5774112394        0.4482022712       -2.2028874515
 H         -3.7810559283        3.0044227025        1.8275291277
 H         -5.5161801382        3.0247913335        1.4902526476
 H         -5.6083075696        0.6385012235        1.2913944683
 H         -4.5993768095        0.9764650833        2.6930773883
 O         -2.6162052800       -0.0045959481        2.0420799587
 C         -1.4712837904       -0.7430192688        1.8218820991
 O         -0.7409841506       -0.8749205489        2.8257936492
 H          0.8029182704        0.4566320393        0.0847666189
 C          1.1529101101       -0.1387254411       -0.7461487509
 C          0.8160839993       -1.4845886610       -0.8121448305
 C          1.2402737190       -2.2215215516       -1.9094693303
 C          1.9776310794       -1.6158969823       -2.9123138404
 C          2.3344199002       -0.2822281125       -2.8289494608
 C          1.9141113905        0.4632983981       -1.7335882811
 N          2.2693384213        1.8151385479       -1.5868354215
 S          2.7023270515        2.3430499582       -0.0584006716
 O          1.5274969516        2.6013297991        0.7364658383
 O          3.5601653422        3.4842527476       -0.2992146019
 C          3.6546702707        0.9973275178        0.6257932789
 C          4.8643062405        0.7051835669        0.0250845491
 C          5.6029909099       -0.3705806434        0.4883833995
 C          5.1193250293       -1.1374843628        1.5376889997
 C          3.9079695395       -0.8271735319        2.1352418495
 C          3.1651863101        0.2502714684        1.6773448391
 H          2.2156330103        0.5107447191        2.1193372889
 H          3.5274985091       -1.4202888914        2.9518329096
 H          5.6890803488       -1.9808787330        1.8944157200
 H          6.5479832798       -0.6109027641        0.0288438196
 H          5.2111845110        1.3294240065       -0.7822683311
 H          2.8965989416        2.1663911374       -2.2957340015
 H          2.9200202605        0.1836127769       -3.6065966109
 H          2.2891241591       -2.1950419727       -3.7681588402
 H          0.9723907684       -3.2617058714       -1.9927432500
 C          0.0319435889       -2.0519852001        0.3448957496
 H          0.6212224089       -1.8619820502        1.2580344296
 C         -0.1678596820       -3.5579220801        0.2702844800
 C         -1.3441461524       -4.2125551892        0.9299485901
 C         -1.2377766323       -4.1928544197       -0.5639762699
 H         -1.0076027928       -5.1188674600       -1.0705619896
 H         -1.8900786419       -3.5399080195       -1.1207205401
 H         -1.1882249030       -5.1471174791        1.4477282504
 H         -2.0747291121       -3.5695601286        1.3999810599
 H          0.7753113277       -4.0911591706        0.3387104803
 O         -1.8754292605       -1.2713676997       -1.7287374508
