  62
        -98.93754716
 C         -2.2733729603       -0.7731172190        0.0726226544
 C         -3.1798787011       -0.2542507509        1.0322749210
 C         -4.1245364614        0.7874154361        0.5879086374
 C         -4.0766365888        1.1939307863       -0.6940027189
 C         -4.9492225148        2.2049106853       -1.3892111131
 C         -6.3491185081        1.6584361824       -1.7115791154
 C         -7.0097360033        0.8769061349       -0.5791298421
 H         -7.9433953689        0.4592230905       -0.9651458083
 H         -6.3697140677        0.0371245112       -0.3025534638
 C         -7.3433888207        1.6938652565        0.6668909091
 H         -8.0055914491        2.5168387313        0.3889252928
 H         -7.8957047311        1.0383893065        1.3450880420
 C         -6.1482272101        2.2673313955        1.4317024880
 H         -6.5146730387        2.5941361084        2.4091977578
 H         -5.7535216914        3.1521628203        0.9395522151
 C         -5.0255056904        1.2698867214        1.6989659872
 H         -5.4466482195        0.3694292471        2.1604512731
 H         -4.3548911921        1.6931528548        2.4564669847
 H         -6.2606889700        0.9889271143       -2.5707420324
 H         -6.9873165827        2.4951412405       -2.0007448199
 H         -5.0152403281        3.1119736348       -0.7958073081
 H         -4.4499301164        2.4566933709       -2.3275367194
 O         -3.1895352788        0.6679179954       -1.5841581609
 C         -2.2742505080       -0.3099496977       -1.2420751973
 O         -1.5440481282       -0.6571202536       -2.1941962143
 O         -3.2103031820       -0.6547578144        2.2269334021
 C         -1.3175113685       -1.8512994014        0.5541231075
 C          0.0581980807       -1.2957442571        0.8382772003
 C          0.5942375860       -1.3439080695        2.1197669924
 C          1.8633746531       -0.8527579930        2.3715121191
 C          2.6206814909       -0.3003028954        1.3543118035
 C          2.0935765643       -0.2455557335        0.0705539313
 C          0.8241785921       -0.7467452819       -0.1802977416
 H          0.4177025409       -0.6975102916       -1.1798356399
 N          2.8426867359        0.3369940967       -0.9672669935
 S          4.4132784691       -0.2046700486       -1.2107111483
 O          4.7064032379        0.0831525737       -2.5976679399
 O          4.5702696809       -1.5785240505       -0.7918482723
 C          5.3982954516        0.8618489309       -0.1790667377
 C          5.3157472500        2.2249780527       -0.3856713044
 C          6.0810763915        3.0689718992        0.4030510886
 C          6.9140832385        2.5385637478        1.3770976663
 C          6.9889654757        1.1675457994        1.5693725669
 C          6.2248671089        0.3178165322        0.7845114492
 H          6.2467433046       -0.7540523089        0.9008558437
 H          7.6378069821        0.7572721263        2.3264014635
 H          7.5086472070        3.1980200881        1.9894246111
 H          6.0254785337        4.1356354464        0.2561171466
 H          4.6600951731        2.5956800691       -1.1559475193
 H          2.3410976687        0.3775039612       -1.8432638151
 H          3.6083296474        0.0867996534        1.5446113929
 H          2.2667004493       -0.8974152668        3.3715995194
 H          0.0038503715       -1.7611902335        2.9224116472
 H         -1.7385269389       -2.1987803948        1.5071851774
 C         -1.2274031436       -3.0359235763       -0.3889047724
 C         -0.7480663026       -4.3520688871        0.1424481677
 C         -2.1880261986       -4.1746433396       -0.2334978864
 H         -2.5556438363       -4.6628713913       -1.1235479056
 H         -2.9173910177       -4.1077640987        0.5606038391
 H         -0.1211854537       -4.9636848568       -0.4882631196
 H         -0.5012284193       -4.4070920986        1.1918601051
 H         -0.9381685654       -2.7647249800       -1.3961479825
