  62
        -98.94437993
 C         -1.8487036117       -1.0487203591       -0.1941220802
 C         -2.3722775794        0.0925399381       -0.8476435568
 C         -3.8368379407        0.2230239826       -0.8277769423
 C         -4.5769232183       -0.7287537572       -0.2302463538
 C         -6.0711055030       -0.6938071416       -0.0935745817
 C         -6.4935361627       -0.0151083951        1.2170244084
 C         -5.8070479819        1.3277768171        1.4667026089
 H         -6.2041405494        1.7269018519        2.4025456624
 H         -4.7379818871        1.1603267211        1.6162735382
 C         -6.0038230338        2.3593281357        0.3471305064
 H         -6.2456564094        3.3240181099        0.7981822464
 H         -6.8510930346        2.0723657919       -0.2767703501
 C         -4.7748038531        2.5773446441       -0.5375761214
 H         -4.9473348483        3.4695538810       -1.1455686367
 H         -3.9004900506        2.7731255254        0.0886623905
 C         -4.4312856538        1.4303668142       -1.4964041253
 H         -5.3159171898        1.1561915961       -2.0749474344
 H         -3.6666164699        1.7947466774       -2.1889110757
 H         -6.2507026079       -0.6831816103        2.0465437939
 H         -7.5758151381        0.1252996699        1.1996979449
 H         -6.4959217231       -0.1633133072       -0.9434876518
 H         -6.4406736333       -1.7206025434       -0.0960984199
 O         -4.0372431647       -1.8213109443        0.3681938523
 C         -2.6646940538       -2.0038361154        0.4115894118
 O         -2.2998919943       -3.0357100930        1.0103709553
 H          1.8313414578        0.1871753621       -1.0629831898
 C          1.4326203276        0.5398294420       -0.1268762105
 C          0.3390479926       -0.0789071274        0.4572025700
 C         -0.1436530235        0.4210393657        1.6649852955
 C          0.4327763606        1.5283876218        2.2540079989
 C          1.5148894934        2.1542174581        1.6594114124
 C          2.0129985638        1.6565723917        0.4624492924
 N          3.1053563943        2.2735891768       -0.1641256448
 S          4.2770511766        1.3466980499       -0.9060862347
 O          5.4503616042        2.1941303312       -0.9212877829
 O          3.8225955970        0.8824782132       -2.1920466721
 C          4.5398717002       -0.0376521540        0.1892141137
 C          4.8645809288        0.2185672133        1.5070687382
 C          5.0597257378       -0.8480253703        2.3688202655
 C          4.9306270834       -2.1470376577        1.9009533523
 C          4.6125439579       -2.3877167577        0.5737667124
 C          4.4134331608       -1.3238128857       -0.2918621366
 H          4.1596606951       -1.4666184696       -1.3294066785
 H          4.5167744487       -3.3982900360        0.2094588452
 H          5.0804695410       -2.9765618996        2.5738625358
 H          5.3105194493       -0.6646763365        3.4011503052
 H          4.9683841196        1.2384930068        1.8393779918
 H          3.5022823901        3.0528892462        0.3391311656
 H          1.9610002177        3.0270028804        2.1113027865
 H          0.0390310898        1.9090561562        3.1844084402
 H         -0.9908364325       -0.0671170634        2.1279673638
 C         -0.3473646992       -1.2744179806       -0.1557719490
 H         -0.1860061604       -2.1395457355        0.5040202642
 C          0.1521622441       -1.6210980443       -1.5426408355
 C          1.3361230537       -2.5212196663       -1.7192001496
 C         -0.0385724232       -3.0184788947       -2.0484656731
 H         -0.3045189910       -3.1604271481       -3.0852684115
 H         -0.5023800168       -3.7271229332       -1.3775657487
 H          1.8103363600       -2.9005205983       -0.8268686045
 H          2.0154035069       -2.3185093729       -2.5339541271
 H          0.0149788201       -0.8115480395       -2.2509989248
 O         -1.6576645701        0.9582812885       -1.4173040068
