  62
        -98.94531823
 C         -2.1396472674       -0.8683448150        0.0584141052
 C         -2.9018468856       -0.2802838433        1.0952107725
 C         -3.6250827328        0.9461072692        0.7407981568
 C         -3.4951103992        1.4634465322       -0.4946090237
 C         -4.1446765280        2.7239210636       -0.9981982885
 C         -5.5824347083        2.5280864932       -1.4987752066
 C         -6.6260908163        2.2962783889       -0.4053355890
 H         -6.5446547720        3.0832386743        0.3450988273
 H         -7.6072311664        2.3934252836       -0.8742273368
 C         -6.5375476921        0.9223893427        0.2735956160
 H         -5.9430693492        0.2475669377       -0.3465831682
 H         -7.5373088324        0.4892704577        0.3503088950
 C         -5.9465771913        0.9481155253        1.6831756100
 H         -6.6044496948        1.5139791652        2.3464070124
 H         -5.8980665482       -0.0792712238        2.0527417655
 C         -4.5369622536        1.5484091937        1.7669658249
 H         -4.5808937866        2.6310220525        1.6491691960
 H         -4.1245810978        1.3195399343        2.7528584975
 H         -5.8595144832        3.4288017082       -2.0513130487
 H         -5.5961314592        1.6907311585       -2.2002454013
 H         -3.5333469911        3.0753470034       -1.8324442987
 H         -4.1306209897        3.4824546238       -0.2148030852
 O         -2.7154165937        0.8915681186       -1.4513194955
 C         -2.0359090967       -0.2946682980       -1.2091082913
 O         -1.3854946259       -0.7213175364       -2.1816321967
 O         -2.9660239683       -0.7515777322        2.2629172375
 C         -1.3818316201       -2.1529968495        0.3386793525
 C          0.0956255449       -1.9510845665        0.1065862637
 C          0.8918528784       -2.8559122632       -0.5828535855
 C          2.2395903967       -2.6018441767       -0.7715018711
 C          2.8233175507       -1.4514258330       -0.2745679199
 C          2.0376412793       -0.5419107733        0.4214351978
 C          0.6898686717       -0.8014337748        0.6126716502
 H          0.0792170191       -0.0877638267        1.1532791660
 N          2.6222154539        0.6263061546        0.9442637599
 S          3.5282191175        1.5858229422       -0.0969543779
 O          3.4664779290        2.9157275531        0.4709806776
 O          3.0914931839        1.4497529961       -1.4669906104
 C          5.1835265201        0.9549849061        0.0859366844
 C          5.8759759635        0.5070582793       -1.0218435640
 C          7.1645487580        0.0232315914       -0.8558839694
 C          7.7346204751       -0.0026885137        0.4076697963
 C          7.0266949608        0.4538183614        1.5096689999
 C          5.7386156142        0.9392181080        1.3506298928
 H          5.1559013461        1.3067978502        2.1786366190
 H          7.4735176487        0.4327366741        2.4905585631
 H          8.7368321698       -0.3806072309        0.5341780176
 H          7.7161220214       -0.3316111972       -1.7116176233
 H          5.3891667160        0.5420324454       -1.9836630494
 H          1.9744384597        1.1975266878        1.4680964929
 H          3.8703825005       -1.2467142414       -0.4264807686
 H          2.8443112685       -3.3107863742       -1.3161040879
 H          0.4554329251       -3.7562739996       -0.9827554052
 H         -1.5354807594       -2.3549700901        1.4096471286
 C         -1.9713156197       -3.2956082374       -0.4616487535
 C         -1.9210329452       -4.6973121361        0.0664206438
 C         -3.2219052123       -3.9546364233        0.0354964761
 H         -3.9707893559       -4.2494059890       -0.6842521522
 H         -3.6315405403       -3.5975498829        0.9692339411
 H         -1.7786971917       -5.5068078163       -0.6334831268
 H         -1.4509217973       -4.8536052430        1.0253858089
 H         -1.8766401945       -3.1438703970       -1.5312134130
