  62
        -98.94341689
 C         -1.8630593099       -0.2738497700       -0.2271235200
 C         -2.9704955000       -0.4843547310       -1.0820660497
 C         -4.2822909899       -0.5650022806       -0.4264351195
 C         -4.3551018698       -0.4554836094        0.9130102204
 C         -5.6303409998       -0.4691273888        1.7043140605
 C         -6.1846561300        0.9502389312        1.8909708592
 C         -6.2559655002        1.7610608200        0.5970196285
 H         -6.6878015404        2.7329138402        0.8455971976
 H         -5.2418714403        1.9432200298        0.2341418982
 C         -7.0820797602        1.1053116788       -0.5183172309
 H         -7.7301134100        0.3361450191       -0.0965504701
 H         -7.7280627904        1.8626084183       -0.9675451715
 C         -6.2505148102        0.5009031279       -1.6511991804
 H         -6.9243085002        0.2633098070       -2.4787932601
 H         -5.5341357203        1.2415729177       -2.0155399511
 C         -5.4830811499       -0.7809931316       -1.3039902492
 H         -5.0990276899       -1.2015594724       -2.2381827589
 H         -6.1638549298       -1.5075133713       -0.8554883285
 H         -7.1806117100        0.8762856615        2.3314866093
 H         -5.5404999700        1.4833783120        2.5938559387
 H         -6.3622232397       -1.0917964995        1.1933479211
 H         -5.4215410396       -0.9000093379        2.6849394709
 O         -3.2667148898       -0.2716658784        1.7030993701
 C         -1.9949863598       -0.1689439187        1.1578100600
 O         -1.0891841198        0.0072365122        1.9932769497
 O         -2.8655554000       -0.6052655321       -2.3331835996
 C         -0.4779383200       -0.1658104503       -0.8349334602
 C          0.4443840302       -1.2278022096       -0.2885742692
 C         -0.0421576295       -2.5146419695       -0.0728878680
 C          0.7800183907       -3.5091014189        0.4189311229
 C          2.1132714207       -3.2498232284        0.6834960725
 C          2.6152689104       -1.9757394885        0.4536138113
 C          1.7813126102       -0.9730163991       -0.0231031796
 H          2.1917855000        0.0084748508       -0.1928744405
 N          3.9612160204       -1.6776887280        0.7127293809
 S          4.8243615901       -0.7308400789       -0.3629210300
 O          4.3623473101       -0.9076874102       -1.7196177798
 O          6.2104935202       -1.0692620784       -0.1164079198
 C          4.5466880099        0.9448654916        0.1695486284
 C          4.4687835899        1.2187553428        1.5206677782
 C          4.3036901697        2.5330874932        1.9275010970
 C          4.2296933595        3.5467368923        0.9840258160
 C          4.3151569194        3.2557695410       -0.3685880537
 C          4.4751033796        1.9423397106       -0.7824980625
 H          4.5335170396        1.6701008997       -1.8243014022
 H          4.2567795892        4.0448336403       -1.1016410844
 H          4.1027278593        4.5688071925        1.3045178251
 H          4.2327180098        2.7628924441        2.9784917068
 H          4.5269718001        0.4078352535        2.2273616689
 H          4.5114118106       -2.4543352876        1.0495157616
 H          2.7589445808       -4.0268118979        1.0640415032
 H          0.3827304809       -4.4983968688        0.5903647438
 H         -1.0806175395       -2.7248449199       -0.2901821177
 H         -0.6139561800       -0.3607792813       -1.9101488500
 C          0.0565655798        1.2413243200       -0.6611719315
 C          0.9619133696        1.8470729892       -1.6902174121
 C         -0.4536685805        2.3219407790       -1.5653441025
 H         -0.6352984606        3.3011334594       -1.1487726734
 H         -1.1609601005        2.0335905682       -2.3294559522
 H          1.7520830695        2.5017509696       -1.3547627828
 H          1.2246940696        1.2417564184       -2.5450625016
 H          0.2229963798        1.4946638210        0.3800479982
