  62
        -98.93691295
 C         -0.8294360825       -1.4040079234       -0.5094071062
 C         -1.8268419874       -1.5869799911        0.4795817566
 C         -2.8695441423       -0.5507313396        0.5994394078
 C         -2.8175154256        0.5097807631       -0.2273332641
 C         -3.7927396697        1.6507433742       -0.3455529462
 C         -5.0930104928        1.2488179723       -1.0609932586
 C         -5.6862114960       -0.0872357138       -0.6222881289
 H         -6.5380471092       -0.3020974721       -1.2731300082
 H         -4.9498890135       -0.8768273760       -0.7828229371
 C         -6.1775650151       -0.1375238205        0.8223293073
 H         -6.6599165452       -1.1077005822        0.9671206790
 H         -6.9360328499        0.6344479812        0.9703881765
 C         -5.1016517891        0.0224433569        1.8985460938
 H         -4.8124632045        1.0633781040        2.0134355692
 H         -5.5456527174       -0.2836412378        2.8503043094
 C         -3.8652731425       -0.8474943611        1.6947396118
 H         -3.2843331986       -0.8523536232        2.6249258634
 H         -4.1775106344       -1.8876928311        1.5474961113
 H         -5.8280157386        2.0414926421       -0.9111250989
 H         -4.8825408971        1.1820514813       -2.1312209949
 H         -3.2986311598        2.4211066951       -0.9400444799
 H         -4.0035349485        2.0664545820        0.6350269836
 O         -1.8292555291        0.6564793080       -1.1527841891
 C         -0.8090492537       -0.2674973173       -1.3187251515
 O          0.0087764420        0.0495287321       -2.2008416633
 O         -1.8578389389       -2.5976697452        1.2339668755
 C          0.2291011445       -2.4877006665       -0.6041955070
 C          1.3598740795       -2.2187103466        0.3556411558
 C          1.8714936015       -3.2311795630        1.1591026322
 C          2.9154171857       -2.9755931596        2.0302863060
 C          3.4704239376       -1.7113806291        2.1105671664
 C          2.9594865778       -0.6892269229        1.3176616362
 C          1.9062014947       -0.9471591412        0.4525259398
 H          1.5171633363       -0.1537581639       -0.1663239977
 N          3.4705150842        0.6107806832        1.4070765953
 S          3.4448890778        1.6360979716        0.0867094854
 O          3.7462063900        0.9329413171       -1.1374594602
 O          4.3750623980        2.6882244902        0.4455086207
 C          1.8053689381        2.3254277990        0.0688698405
 C          1.2400421285        2.6828303784       -1.1379139920
 C         -0.0015766928        3.2984854708       -1.1385206309
 C         -0.6517009084        3.5425855295        0.0601799129
 C         -0.0745370006        3.1674796426        1.2636150584
 C          1.1692260468        2.5583802040        1.2722768622
 H          1.6476492459        2.2557724852        2.1891568427
 H         -0.5891768852        3.3489029957        2.1936362039
 H         -1.6158203172        4.0264644954        0.0578993919
 H         -0.4571545414        3.5730990813       -2.0763842986
 H          1.7656024558        2.4543940535       -2.0512123040
 H          4.2995922219        0.7211267668        1.9715904767
 H          4.2878120234       -1.5108280144        2.7860798869
 H          3.3044546324       -3.7687215905        2.6504540075
 H          1.4366952743       -4.2183853658        1.1061455185
 H         -0.2732707031       -3.4082997905       -0.2645225489
 C          0.7206955608       -2.7411695510       -2.0214124360
 C          2.0148848858       -2.2157763036       -2.5574686588
 C          1.8655343199       -3.6783871419       -2.2715222395
 H          1.8004517032       -4.3633397851       -3.1034439326
 H          2.3850395660       -4.0734359467       -1.4116169763
 H          2.0281910462       -1.8829795323       -3.5843957273
 H          2.6390431259       -1.6147054527       -1.9136577142
 H         -0.1031981480       -2.7817907655       -2.7276041179
