  62
        -98.93184089
 C          2.2440841406        0.9545545411        0.1442139790
 C          2.3904161210       -0.4181671186        0.4749871698
 C          3.5489913910       -1.1147628187       -0.0982529799
 C          4.3872851507       -0.4466234391       -0.9102995305
 C          5.5891812407       -1.0035557893       -1.6266782103
 C          6.7530589810       -1.4788112184       -0.7357731602
 C          6.7206188014       -2.9744216582       -0.3980252392
 H          6.1517763414       -3.4961723089       -1.1685571988
 H          7.7389409315       -3.3660846080       -0.4403710691
 C          6.1612887417       -3.3351134375        0.9814630311
 H          6.9219902718       -3.1328990568        1.7389231608
 H          5.9641042619       -4.4092451375        0.9922568518
 C          4.8909842716       -2.5952960075        1.4019195608
 H          5.1403267714       -1.5714940872        1.6910268801
 H          4.4938277118       -3.0792765370        2.2965472412
 C          3.7922320814       -2.5350386584        0.3225521510
 H          4.0612694614       -3.1484953289       -0.5362441587
 H          2.8486638015       -2.9063846384        0.7280502914
 H          7.6739089309       -1.2737770086       -1.2839082005
 H          6.7799562410       -0.8822604378        0.1756298494
 H          5.2641886708       -1.8260966698       -2.2677483897
 H          5.9412090105       -0.1960119896       -2.2716781409
 O          4.2050546804        0.8645874607       -1.2163390713
 C          3.1525724403        1.6022857708       -0.6938053716
 O          3.1601684000        2.7936787706       -1.0595390524
 O          1.5867790612       -1.0363001883        1.2258556804
 C          1.0628398505        1.6834518313        0.7619499087
 C         -0.0798004797        1.8413453104       -0.2136300212
 C          0.0366412700        2.6316706997       -1.3525750918
 C         -1.0315908402        2.7667540189       -2.2199501417
 C         -2.2309419900        2.1242819488       -1.9699085511
 C         -2.3612244996        1.3385969295       -0.8302115705
 C         -1.2859164295        1.2015601103        0.0367897294
 H         -1.3911706592        0.5727480908        0.9083060098
 N         -3.5905537595        0.7252549794       -0.5334814399
 S         -3.6286880990       -0.7616674401        0.2621271410
 O         -3.3268976388       -0.5524289291        1.6555120709
 O         -2.8153295889       -1.7285143104       -0.4415742985
 C         -5.3591217189       -1.1529554106        0.0804630016
 C         -5.7587637189       -2.0919628513       -0.8509487277
 C         -7.1113095089       -2.3608030217       -0.9940280874
 C         -8.0358079589       -1.6872628014       -0.2102670576
 C         -7.6193271589       -0.7473121507        0.7211013517
 C         -6.2689515190       -0.4755315703        0.8706610313
 H         -5.8978762590        0.2386659803        1.5869498608
 H         -8.3408931689       -0.2273218904        1.3303109515
 H         -9.0874479089       -1.8978039017       -0.3241637573
 H         -7.4376506888       -3.0930211422       -1.7149128468
 H         -5.0035107989       -2.5947156415       -1.4335636975
 H         -4.2228393796        0.7263574088       -1.3228081598
 H         -3.0628911501        2.2328897081       -2.6491731710
 H         -0.9274417905        3.3777710683       -3.1039381021
 H          0.9749915798        3.1225811797       -1.5580539022
 H          0.7136994608        1.0234816217        1.5685825392
 C          1.4341853503        3.0232406017        1.3689138178
 C          0.5418968704        3.6122121822        2.4182310575
 C          1.8918241706        3.0802709528        2.7938022876
 H          2.6700305204        3.7809582831        3.0565621071
 H          1.9391326309        2.1494278731        3.3406389982
 H          0.3901144501        4.6804689422        2.4246716969
 H         -0.3270191094        3.0411633622        2.7104345580
 H          1.9054859801        3.6986652714        0.6672554472
