  62
        -98.93848043
 C         -2.3124358526       -1.2074906250        0.2448299922
 C         -2.4175659966       -0.0144060821       -0.5067312722
 C         -3.4109061537        0.9725129175       -0.0408907973
 C         -4.1411554338        0.7166072104        1.0598870551
 C         -5.1807917357        1.5468717984        1.7833095041
 C         -5.8334327181        2.7491219523        1.1054058475
 C         -6.7186648469        2.4082665437       -0.0926116958
 H         -7.0551603941        3.3442559538       -0.5438705822
 H         -7.6023924659        1.8758109937        0.2677097781
 C         -6.0671552962        1.5441671453       -1.1694218075
 H         -6.8017332236        1.3913755923       -1.9647216297
 H         -5.8305600918        0.5609559702       -0.7576874384
 C         -4.8087395369        2.1307543582       -1.8066748301
 H         -5.0193629211        3.1339093930       -2.1823722397
 H         -4.5497408725        1.5009838585       -2.6620297140
 C         -3.5718012808        2.1984555271       -0.8929922689
 H         -3.5810575369        3.0944093462       -0.2766516557
 H         -2.6830618520        2.2509005036       -1.5289160947
 H         -5.0799610288        3.4794582503        0.8251612467
 H         -6.4675762107        3.2231454862        1.8595996869
 H         -5.9607230971        0.8422749567        2.0888031995
 H         -4.6977008009        1.8905617459        2.7048350361
 O         -3.9814274062       -0.4369758287        1.7719601536
 C         -3.0837861112       -1.4148548274        1.3907172440
 O         -3.0676644943       -2.4124550014        2.1386056628
 H          0.4192312672       -0.8222321067       -1.5784063548
 C          0.8230184187       -1.1061876473       -0.6193429721
 C          0.0597806841       -1.8771824742        0.2441231622
 C          0.5819929310       -2.1908524459        1.4952417290
 C          1.8393551431       -1.7498343457        1.8646827247
 C          2.5985668382       -0.9810113209        0.9996022161
 C          2.0773236995       -0.6452998237       -0.2422948704
 N          2.8316594850        0.1471002383       -1.1248033760
 S          3.5593668589        1.5336862858       -0.5211686543
 O          2.8350671285        2.0747816730        0.6060804996
 O          3.7190677739        2.4072582360       -1.6634094186
 C          5.1672150810        0.9675094859       -0.0026970049
 C          5.9375817272        0.2737154353       -0.9154355222
 C          7.1945345213       -0.1663410325       -0.5329673169
 C          7.6591941230        0.0958711711        0.7473260987
 C          6.8754801749        0.7968704877        1.6508531433
 C          5.6165111067        1.2391102956        1.2746586022
 H          4.9697446999        1.7823387079        1.9454132816
 H          7.2381029196        1.0000437506        2.6457066078
 H          8.6377082771       -0.2483293470        1.0428991709
 H          7.8068007837       -0.7118498256       -1.2328574509
 H          5.5406614853        0.0930732809       -1.9003303936
 H          2.3493109685        0.3477028066       -1.9895755839
 H          3.5754882031       -0.6266325574        1.2851806857
 H          2.2329749862       -2.0047909215        2.8369299202
 H         -0.0188136613       -2.7711269043        2.1814784308
 C         -1.3380388139       -2.3192752294       -0.1164257373
 H         -1.6002550016       -3.1635278691        0.5347335113
 C         -1.4734046289       -2.7632548534       -1.5586322706
 C         -0.8632594821       -4.0655794182       -1.9782935146
 C         -2.3527672079       -3.9314691026       -1.8838020345
 H         -2.9287678586       -3.9033363359       -2.7966859710
 H         -2.8594039823       -4.4197624936       -1.0639737107
 H         -0.3580131737       -4.6449640075       -1.2204557848
 H         -0.4140287976       -4.1330533397       -2.9571800985
 H         -1.4604894622       -1.9463050220       -2.2680537192
 O         -1.7253495505        0.2389762410       -1.5289282432
