  62
        -98.94540027
 C         -1.5619709926       -1.2975688460       -0.7176064339
 C         -2.8294944115       -1.0523427174       -0.1272411633
 C         -3.4933882925        0.2047922738       -0.4890304401
 C         -2.8893904921        1.0373918183       -1.3557980610
 C         -3.4172784777        2.3802596504       -1.7684325653
 C         -2.8739679097        3.4887616440       -0.8564932514
 C         -3.0193675948        3.1885965954        0.6355311073
 H         -2.3686210036        2.3482362478        0.8920251286
 H         -2.6382761034        4.0566329801        1.1786478667
 C         -4.4554833906        2.8893479760        1.0889589397
 H         -4.6491256287        3.4361493682        2.0142247962
 H         -5.1619487011        3.2545429607        0.3425199062
 C         -4.7389122858        1.4136578089        1.3764653728
 H         -5.6969476934        1.3473141430        1.8991442808
 H         -3.9709209979        1.0189310851        2.0470816608
 C         -4.8219359851        0.4983697983        0.1485199242
 H         -5.5155562320        0.9219362342       -0.5806597752
 H         -5.2155912158       -0.4671576233        0.4795528280
 H         -3.3919991403        4.4196031116       -1.0958240169
 H         -1.8103850641        3.6235911193       -1.0683083693
 H         -3.0979785922        2.5766202088       -2.7934150671
 H         -4.5049603620        2.3651912384       -1.7324203324
 O         -1.6941284050        0.7589800927       -1.9271879919
 C         -0.9819405573       -0.3864958533       -1.5998318112
 O          0.1181308971       -0.4605625330       -2.1821740534
 O         -3.3834784656       -1.8594270078        0.6681592183
 C         -0.8534892224       -2.5659800178       -0.2696126896
 C         -0.0258986406       -2.2645253566        0.9587188276
 C         -0.2305384457       -2.9547089318        2.1466685000
 C          0.4921278470       -2.6270848225        3.2804491283
 C          1.4071489258       -1.5914142168        3.2542634121
 C          1.6215414553       -0.8946538746        2.0681689511
 C          0.9295106902       -1.2578814605        0.9232567825
 H          1.0979345274       -0.7180781434        0.0069555175
 N          2.5401627838        0.1611725153        2.0260432685
 S          2.3327113952        1.5229001137        1.0650336859
 O          2.8592991768        2.6071192521        1.8712524779
 O          0.9679294039        1.6671058176        0.6219429879
 C          3.4622380857        1.2381683021       -0.2821495926
 C          3.0168825736        0.8071607880       -1.5142722481
 C          3.9486182229        0.5773223003       -2.5166153873
 C          5.2973789220        0.7810960433       -2.2740068494
 C          5.7283782270        1.2180942525       -1.0299639113
 C          4.8046816835        1.4482373678       -0.0249204216
 H          5.0931250656        1.8016203094        0.9510889448
 H          6.7777603631        1.3792797251       -0.8426660810
 H          6.0147102657        0.5999468438       -3.0590065387
 H          3.6054808165        0.2369969729       -3.4807516078
 H          1.9631816776        0.6489161281       -1.6879474746
 H          2.9387363392        0.4057323943        2.9205314493
 H          1.9496069517       -1.3147822959        4.1457248739
 H          0.3255005815       -3.1686067414        4.1993278531
 H         -0.9772838411       -3.7339113398        2.1847274640
 H         -1.6549648926       -3.2546486958        0.0325032042
 C         -0.0174471624       -3.2435475492       -1.3350075476
 C          0.2627158616       -4.7104339357       -1.2111413588
 C         -0.6687618577       -4.2119882389       -2.2741391813
 H         -0.3411400175       -4.2286843399       -3.3024940635
 H         -1.7269248682       -4.3921620193       -2.1512631211
 H          1.2341093286       -5.0743212805       -1.5080348927
 H         -0.1647904542       -5.2333077604       -0.3690935486
 H          0.7648963406       -2.6137941931       -1.7365172909
