  62
        -98.93221173
 C          2.5967699552        1.2308166537        0.1940646108
 C          3.0103229787        0.2462871763        1.1241987529
 C          4.2090208695       -0.5456962253        0.7914089356
 C          4.8505488286       -0.2853056614       -0.3626596985
 C          6.0604592363       -0.9754183766       -0.9339938374
 C          5.7270624402       -2.3483526519       -1.5402222278
 C          4.7892211412       -3.2116249426       -0.7003200693
 H          3.8574685996       -2.6687064202       -0.5307494450
 H          4.5432981398       -4.1011364575       -1.2863414015
 C          5.3570280587       -3.6775151518        0.6382744394
 H          4.6201996663       -4.3487541795        1.0868640693
 H          6.2667500940       -4.2552389837        0.4597789540
 C          5.6732468905       -2.5756934531        1.6517731540
 H          6.6017291551       -2.0687397575        1.4032078426
 H          5.8343320099       -3.0603908065        2.6192615353
 C          4.5555728071       -1.5577879113        1.8567196171
 H          4.7777055205       -0.9728335027        2.7576352054
 H          3.6234693290       -2.0883924975        2.0822466473
 H          6.6613795899       -2.8845813726       -1.7147710196
 H          5.2473524863       -2.1818553673       -2.5077602863
 H          6.4444597224       -0.3294729239       -1.7266383426
 H          6.8327465486       -1.0631009802       -0.1755629904
 O          4.4218526132        0.6759837279       -1.2271286865
 C          3.2940812098        1.4473812302       -0.9945824873
 O          3.0476191724        2.2606122190       -1.9031434382
 O          2.3977876850        0.0325866274        2.2064882174
 C          1.3570979793        2.0279276407        0.5571941303
 C          0.1190781892        1.3619519944        0.0129166263
 C          0.0069418683        1.0342575596       -1.3349110461
 C         -1.1383728212        0.4240979258       -1.8128272092
 C         -2.1874842192        0.1207946354       -0.9620209671
 C         -2.0850478424        0.4399871312        0.3849362251
 C         -0.9359957798        1.0604256292        0.8609617595
 H         -0.8540815584        1.2966638751        1.9134818521
 N         -3.1322661205        0.1133752100        1.2587591385
 S         -4.7146591228        0.4405347283        0.8118144796
 O         -4.7880125043        1.5820428526       -0.0696997457
 O         -5.4411049044        0.5423014028        2.0582309396
 C         -5.2330623007       -1.0317787426       -0.0443056218
 C         -5.0848289151       -2.2458965262        0.5971767524
 C         -5.4946195377       -3.3995974567       -0.0516497791
 C         -6.0459000377       -3.3201483215       -1.3219580925
 C         -6.1916585602       -2.0932366814       -1.9508464774
 C         -5.7824914931       -0.9353321250       -1.3076818308
 H         -5.8714911214        0.0394698475       -1.7605116897
 H         -6.6207644566       -2.0335478577       -2.9381769067
 H         -6.3636165624       -4.2199829464       -1.8246993539
 H         -5.3826303473       -4.3556097140        0.4340846611
 H         -4.6547884707       -2.2658851042        1.5847074686
 H         -2.9610303954        0.3589162651        2.2227105870
 H         -3.0793965933       -0.3571068461       -1.3326966867
 H         -1.2144462165        0.1775464272       -2.8610937164
 H          0.8255436765        1.2660505924       -1.9998347179
 H          1.3034305884        1.9694664746        1.6562557858
 C          1.4548114623        3.5021069842        0.1918859670
 C          0.6468506373        4.1529185801       -0.8860087252
 C          0.3374580321        4.4370818275        0.5513100946
 H          0.5814553648        5.4076531806        0.9558279966
 H         -0.5630280037        4.0019071306        0.9596898168
 H          1.1292182188        4.9157557732       -1.4776214662
 H         -0.0487241100        3.5471570222       -1.4446971477
 H          2.4631943083        3.8814093650        0.3236201470
