  62
        -98.93989294
 C          1.8580839506        0.6043545699        0.0320947889
 C          2.3918641508       -0.6905098799        0.2600478896
 C          3.7878002708       -0.9052102399       -0.1415176504
 C          4.4688667506        0.1072115798       -0.7078869311
 C          5.9103974605        0.0485475698       -1.1210818412
 C          6.8337367906        0.5066309806        0.0164260884
 C          6.5360925408       -0.1603800687        1.3592708089
 H          7.2664908508        0.2158235219        2.0788137686
 H          5.5502118608        0.1585141714        1.7052122688
 C          6.5892104910       -1.6942786487        1.3315280198
 H          7.1327770610       -2.0307140291        0.4479414299
 H          7.1444392512       -2.0416565181        2.2054042099
 C          5.2207676912       -2.3771706288        1.3738052403
 H          5.3775149813       -3.4415593187        1.5686715109
 H          4.6357239912       -1.9761792384        2.2054403701
 C          4.3789750010       -2.2662496297        0.0961729503
 H          4.9723127310       -2.5839964801       -0.7638789895
 H          3.5292154511       -2.9479982998        0.1976410708
 H          7.8659696006        0.3013960206       -0.2728568615
 H          6.7228557404        1.5864751607        0.1386173878
 H          6.1564842206       -0.9698558003       -1.4155100306
 H          6.0493812003        0.7090447393       -1.9785599016
 O          3.9234263804        1.3281071896       -0.9264975217
 C          2.6107960903        1.6155036296       -0.5676251618
 O          2.2675796701        2.7804225594       -0.8365117724
 O          1.7281625710       -1.6249736497        0.7860939202
 C          0.4160840806        0.8293339999        0.4557498289
 C         -0.5113191195        0.5324326791       -0.6950920108
 C         -0.3755591697        1.1960456684       -1.9120445812
 C         -1.2103342298        0.8935637276       -2.9709970209
 C         -2.1971239396       -0.0680787824       -2.8381310103
 C         -2.3372064294       -0.7403750217       -1.6300031798
 C         -1.4996550593       -0.4322589410       -0.5648066501
 H         -1.6019982992       -0.9826141305        0.3583572902
 N         -3.3154880792       -1.7311077218       -1.4802983392
 S         -4.0901191791       -1.9672950011       -0.0243239689
 O         -3.2391245689       -2.6746823704        0.8986159514
 O         -5.3234544290       -2.6347469014       -0.3830688184
 C         -4.4514945492       -0.3368808507        0.6053089301
 C         -5.0530981995        0.5826807987       -0.2315063103
 C         -5.3515959096        1.8427472789        0.2606791090
 C         -5.0543676795        2.1592265397        1.5773513487
 C         -4.4583859393        1.2229576703        2.4075237992
 C         -4.1497701191       -0.0369271399        1.9177607399
 H         -3.6738163290       -0.7901811995        2.5256455503
 H         -4.2265159292        1.4697293010        3.4312189891
 H         -5.2852104096        3.1410357699        1.9587277682
 H         -5.8140628898        2.5732666285       -0.3831167614
 H         -5.2832482395        0.3071215180       -1.2475755501
 H         -3.9318186193       -1.8551009223       -2.2691793590
 H         -2.8446145297       -0.3085324030       -3.6675230100
 H         -1.0938649100        1.4134365771       -3.9098811012
 H          0.3943742701        1.9454385784       -2.0148728417
 H          0.2308379708        0.0659080203        1.2282123794
 C          0.1802193704        2.1930577502        1.0911383282
 C         -0.7526111298        3.2206232198        0.5295144677
 C         -1.1263070695        2.4745783604        1.7722296381
 H         -1.1164163295        2.9964611410        2.7168603778
 H         -1.8958223394        1.7215000203        1.6887457487
 H         -0.4575948199        4.2554387699        0.6113371370
 H         -1.2826184598        2.9893659192       -0.3804469621
 H          1.0722859204        2.5745256107        1.5765240278
