  62
        -98.94191486
 C         -1.2858560836       -1.3792316534        0.7297338420
 C         -1.8593934236       -1.1177859955       -0.5393193581
 C         -2.8044167246        0.0091518784       -0.5949053722
 C         -3.0196813628        0.7501144469        0.5062254436
 C         -3.9418905974        1.9319662648        0.5787788276
 C         -3.2098176747        3.2432173724        0.2644766571
 C         -2.3587389285        3.1892217732       -1.0038490661
 H         -1.9185163920        4.1783335622       -1.1419511408
 H         -1.5342831988        2.4887142426       -0.8515178950
 C         -3.1299091588        2.7975429146       -2.2717877867
 H         -4.2000582262        2.9386118326       -2.1152673771
 H         -2.8306341369        3.4641259700       -3.0831496066
 C         -2.8736416315        1.3687809334       -2.7540038478
 H         -1.7973499174        1.1881421039       -2.8154687422
 H         -3.2796011302        1.2726880280       -3.7646358654
 C         -3.5001386703        0.2565889038       -1.9039037656
 H         -4.5595322004        0.4682106347       -1.7433084142
 H         -3.4180642523       -0.6772003813       -2.4679953368
 H         -3.9527129941        4.0377502923        0.1738512720
 H         -2.5563689183        3.4799494843        1.1061305290
 H         -4.7615972324        1.7841056008       -0.1219785337
 H         -4.3484004662        1.9865203191        1.5902621860
 O         -2.3843776163        0.5213522953        1.6846138685
 C         -1.5049516926       -0.5397442567        1.8244253303
 O         -0.9841556292       -0.6247969567        2.9551347630
 H          1.3229437285       -0.5312129100        0.4363505351
 C          1.5121522481       -1.3495622352       -0.2426190068
 C          0.7384887097       -2.4994071159       -0.1438804850
 C          0.9776990829       -3.5407035267       -1.0294519617
 C          1.9692459211       -3.4234110089       -1.9882719948
 C          2.7530083420       -2.2870068945       -2.0667820975
 C          2.5215616552       -1.2385678842       -1.1826857469
 N          3.2872128814       -0.0639234056       -1.2316734339
 S          3.7167582701        0.7200755942        0.1836550437
 O          4.9183337947        1.4496857133       -0.1629335148
 O          3.8296725474       -0.2017104128        1.2891132503
 C          2.4117234380        1.8966737047        0.4709904353
 C          1.6212433187        1.8001955309        1.5983964114
 C          0.6398026080        2.7550178662        1.8145514404
 C          0.4748608845        3.7910474741        0.9090492352
 C          1.2746404078        3.8730867703       -0.2212248473
 C          2.2516065633        2.9177732231       -0.4456191246
 H          2.9012135348        2.9521947762       -1.3042967701
 H          1.1387992717        4.6785472933       -0.9246481159
 H         -0.2796168778        4.5409115374        1.0873559380
 H          0.0100605810        2.6741422249        2.6870155038
 H          1.7761892243        0.9853963891        2.2897560841
 H          4.0434341486       -0.0753434561       -1.9002876375
 H          3.5327255679       -2.2044540422       -2.8088581669
 H          2.1397916613       -4.2339283786       -2.6807668082
 H          0.3738406818       -4.4321303562       -0.9857036979
 C         -0.3119854329       -2.5260371870        0.9389149299
 H          0.1975975788       -2.2949618045        1.8900228038
 C         -0.9640244762       -3.8874849761        1.1245570408
 C         -2.3333064636       -4.0085356671        1.7229608035
 C         -2.1097514499       -4.3631569649        0.2850822594
 H         -2.1383660902       -5.4068260170        0.0072895271
 H         -2.4830369377       -3.6981468362       -0.4765000798
 H         -2.8610838020       -3.0930162871        1.9488606300
 H         -2.5162493148       -4.8037317623        2.4300817233
 H         -0.2409304616       -4.6382283062        1.4298558421
 O         -1.6164226376       -1.7879612182       -1.5751068552
