  62
        -98.93998513
 C         -1.9215324629       -1.6063580425       -0.0140522046
 C         -1.6818084999       -0.3459194515       -0.6085035035
 C         -2.8142602215        0.5991629582       -0.6154846099
 C         -4.0000054665        0.2164696569       -0.1059594752
 C         -5.3295784448        0.9379913043       -0.0260480904
 C         -5.4157093562        2.4431480477       -0.2649127634
 C         -4.7367928599        3.2996467863        0.8039427911
 H         -4.7598316878        4.3404719463        0.4738719298
 H         -5.3211092553        3.2308985092        1.7251298507
 C         -3.2984537391        2.9157061395        1.1429249070
 H         -3.2769404234        1.9057091465        1.5573893778
 H         -2.9493469189        3.5913906269        1.9284966032
 C         -2.3057643415        2.9988408238       -0.0148474329
 H         -2.3326798123        4.0012891494       -0.4464441552
 H         -1.3073806463        2.8318342881        0.3978841101
 C         -2.5123678344        1.9724033479       -1.1413927691
 H         -3.2775002286        2.2984547981       -1.8414634961
 H         -1.5722652172        1.8838024037       -1.6935141221
 H         -5.0350708796        2.6894319683       -1.2516874083
 H         -6.4791993914        2.6975674797       -0.2645291776
 H         -5.7339424788        0.7092023577        0.9651925561
 H         -5.9836508077        0.4352670345       -0.7472489880
 O         -4.1909218631       -1.0304593197        0.4202955195
 C         -3.1648744973       -1.9538999706        0.5077109426
 O         -3.4800593328       -3.0268680171        1.0616417563
 O         -0.5779862567       -0.0198174071       -1.1154592948
 C         -0.7942189042       -2.6186589618        0.0851981102
 C          0.3861744256       -1.9646720812        0.7600886029
 C          0.2000649568       -1.3847556660        2.0126057189
 C          1.2335298563       -0.7249888847        2.6485819916
 C          2.4766753060       -0.6239943623        2.0479475854
 C          2.6735665624       -1.2032361090        0.8027284401
 C          1.6364412357       -1.8783306642        0.1711594071
 H          1.8091259733       -2.3193824896       -0.7978248752
 N          3.9309122968       -1.0984239836        0.1791792102
 S          4.6173388965        0.4250420376        0.0668037498
 O          5.5843979814        0.3193586673       -1.0032998141
 O          5.1419509147        0.8083815296        1.3539533311
 C          3.2902253382        1.5182771457       -0.4042314022
 C          2.7680992441        2.4043097905        0.5149606609
 C          1.7230169174        3.2279392027        0.1292783942
 C          1.2195174339        3.1488799474       -1.1593658698
 C          1.7515933382        2.2492383298       -2.0690457909
 C          2.7958568062        1.4237247102       -1.6895580282
 H          3.2403250018        0.7199478242       -2.3750483106
 H          1.3513549346        2.1837957632       -3.0678935071
 H          0.4053586729        3.7908531103       -1.4570120362
 H          1.3033589025        3.9272940922        0.8351340585
 H          3.1911401802        2.4384522862        1.5057293642
 H          3.9742256058       -1.5647654624       -0.7156641464
 H          3.2925383200       -0.1037285531        2.5227191789
 H          1.0707891568       -0.2788164181        3.6181647945
 H         -0.7759015821       -1.4492876449        2.4753494294
 H         -1.1622115329       -3.4278412462        0.7318468593
 C         -0.4850719524       -3.1900861858       -1.2826142251
 C          0.1493144219       -4.5419766931       -1.4090048798
 C         -1.2898502429       -4.3509199218       -1.7809453710
 H         -1.5618280393       -4.3796120581       -2.8254970579
 H         -2.0494757919       -4.7463862928       -1.1224400176
 H          0.8637366451       -4.7072858068       -2.2016086468
 H          0.3708482850       -5.0773144611       -0.4981107120
 H         -0.2155373784       -2.4262737216       -2.0032974395
