  62
        -98.93327602
 C         -2.2779365518        0.2736200654       -0.1800036824
 C         -3.4346113750        0.6862373907       -0.8823639723
 C         -4.6749888463       -0.0390875838       -0.5709638593
 C         -4.6389018921       -1.0399378346        0.3278841098
 C         -5.8294862239       -1.8182294830        0.8116892908
 C         -6.6263830818       -0.9799733701        1.8318242101
 C         -8.0301798879       -0.5902060266        1.3683194308
 H         -8.6836151897       -1.4618071120        1.4443840728
 H         -8.4055345294        0.1646174749        2.0625594604
 C         -8.1354650719       -0.0493959589       -0.0609105544
 H         -8.1253628774       -0.8791701518       -0.7691292258
 H         -9.1155475214        0.4239702226       -0.1501214285
 C         -7.0605303253        0.9632137142       -0.4764929391
 H         -6.6443086614        1.4642087825        0.3977683051
 H         -7.5369803819        1.7331368858       -1.0868129042
 C         -5.9141115302        0.3714768607       -1.3177949290
 H         -6.2876479819       -0.4756946982       -1.8996212854
 H         -5.5727878553        1.1317303967       -2.0266195115
 H         -6.0522494072       -0.0786225733        2.0565526263
 H         -6.7168496957       -1.5348181653        2.7668703692
 H         -5.4537689616       -2.7287517269        1.2786090406
 H         -6.4578075351       -2.0922213353       -0.0328213667
 O         -3.5031058996       -1.4168599810        0.9716552347
 C         -2.2957823149       -0.7750181978        0.7387272407
 O         -1.3392911163       -1.2250005053        1.3972727825
 O         -3.4280637757        1.6148078656       -1.7356298695
 C         -0.9663597154        0.9899747227       -0.4417990278
 C          0.0792242241        0.0180127132       -0.9296033623
 C         -0.2350327779       -0.8337172843       -1.9864772342
 C          0.6957946097       -1.7304505586       -2.4722800592
 C          1.9669711680       -1.7868071046       -1.9275343949
 C          2.2914124237       -0.9413495651       -0.8741933025
 C          1.3498060575       -0.0471481545       -0.3820051507
 H          1.6313311270        0.5949840340        0.4354115016
 N          3.5644994389       -0.9880589632       -0.2843815184
 S          4.2459219847        0.4490627135        0.2796509488
 O          3.7596795627        0.7120529113        1.6105232611
 O          4.0543662419        1.5025518406       -0.6913985220
 C          5.9659657692       -0.0180518885        0.3508423993
 C          6.4153279773       -0.7331728696        1.4450346884
 C          7.7446213546       -1.1221272335        1.4908131374
 C          8.5976564809       -0.7921855776        0.4479376931
 C          8.1327543120       -0.0729207932       -0.6427586886
 C          6.8040863106        0.3183176243       -0.6955035397
 H          6.4003726812        0.8861499514       -1.5183033973
 H          8.7991121653        0.1850657699       -1.4500045191
 H          9.6320801767       -1.0950073019        0.4872194770
 H          8.1102712232       -1.6789261461        2.3384605467
 H          5.7179165464       -0.9585061205        2.2350887208
 H          4.2266858374       -1.5369297516       -0.8152732369
 H          2.6966214818       -2.4846545049       -2.3093000701
 H          0.4340794729       -2.3863684901       -3.2890945895
 H         -1.2251117539       -0.7825807929       -2.4194213850
 H         -1.1765507348        1.6982370192       -1.2579280734
 C         -0.5391967577        1.7743700357        0.7806115936
 C          0.3332768683        2.9838425502        0.6334979948
 C         -1.1084265870        3.1409653855        1.0105212068
 H         -1.3488225009        3.4363440357        2.0207750443
 H         -1.7920894931        3.5241481766        0.2670355819
 H          1.0906256000        3.1648228438        1.3820556195
 H          0.6352978929        3.2632990186       -0.3648813502
 H         -0.3881765940        1.1421989157        1.6494377684
