  62
        -98.94134685
 C         -1.6188265804       -0.3274351610        0.2702470600
 C         -2.7596738703       -1.0025109413       -0.2284587700
 C         -3.8376800803       -0.1421579316       -0.7371059304
 C         -3.6848917205        1.1933774384       -0.7577994307
 C         -4.6840817206        2.1943534081       -1.2711314612
 C         -5.7638000708        2.5785296482       -0.2500323715
 C         -6.8144495607        1.5014674281        0.0232958387
 H         -7.6230620009        1.9773538782        0.5817679884
 H         -7.2326027305        1.1548996278       -0.9222948813
 C         -6.2974090906        0.3021246285        0.8300346291
 H         -7.0115264107        0.0596015786        1.6203275790
 H         -5.3580200008        0.5695020687        1.3193165692
 C         -6.0820140503       -0.9689146117        0.0084877795
 H         -5.6802294603       -1.7404934115        0.6701714398
 H         -7.0406414302       -1.3226669620       -0.3776279306
 C         -5.1125695001       -0.8023774519       -1.1688864304
 H         -4.8606719099       -1.7954048420       -1.5489101301
 H         -5.5855080701       -0.2319458722       -1.9678967306
 H         -6.2747827909        3.4643894780       -0.6343130918
 H         -5.2755750310        2.8568613986        0.6867608685
 H         -4.1189611007        3.0926248181       -1.5287048314
 H         -5.1572215604        1.8103847278       -2.1753511312
 O         -2.5532783907        1.8030214387       -0.3152932307
 C         -1.5126365007        1.0668278990        0.2236181196
 O         -0.5550221508        1.7583001593        0.6242981796
 H          2.0613836695       -0.1833646404        0.3175604406
 C          1.7688941398       -0.9940337106       -0.3321329692
 C          0.5071677898       -1.5552975508       -0.1990566893
 C          0.1339878101       -2.5820458511       -1.0599047190
 C          1.0144961504       -3.0365340912       -2.0240865288
 C          2.2824118903       -2.4934661310       -2.1363243087
 C          2.6625865700       -1.4627267907       -1.2847250590
 N          3.9314242299       -0.8791485206       -1.3896539589
 S          4.7328540096       -0.2997502801       -0.0425930790
 O          6.1234524997       -0.2665965699       -0.4431899488
 O          4.4315830895       -1.0785101698        1.1357031212
 C          4.1462035893        1.3697564399        0.1414917005
 C          3.6725382190        1.8008490402        1.3639716603
 C          3.2393346488        3.1107148302        1.4919656598
 C          3.2893097589        3.9625400198        0.4001066796
 C          3.7716761191        3.5155138896       -0.8206586902
 C          4.2063274894        2.2072099996       -0.9544641998
 H          4.5894013296        1.8246365194       -1.8858797496
 H          3.8069785692        4.1823415393       -1.6672236104
 H          2.9471097987        4.9803100798        0.5021103692
 H          2.8591061986        3.4586511504        2.4389978697
 H          3.6444036590        1.1039794704        2.1873025405
 H          4.5557350901       -1.3184564007       -2.0497144087
 H          2.9728777705       -2.8600568611       -2.8807691485
 H          0.7149006006       -3.8319068514       -2.6899134786
 H         -0.8541007098       -3.0068235712       -0.9742136791
 C         -0.4219340804       -1.0435169906        0.8755618004
 H          0.1247163294       -0.2771319004        1.4420010503
 C         -0.8043359704       -2.1568369804        1.8317789707
 C          0.2306899095       -2.6669984599        2.7872066610
 C         -0.9249191707       -1.8579708900        3.2940874306
 H         -1.6959843107       -2.3585057199        3.8605127306
 H         -0.7355162509       -0.8440155099        3.6159950503
 H          1.2075102795       -2.2058351898        2.7604779010
 H          0.2532721997       -3.7237196999        3.0057653113
 H         -1.4980893502       -2.8716741306        1.4102920508
 O         -2.8987197001       -2.2536657313       -0.2599585996
