  62
        -98.94856025
 C         -1.2384088012       -1.5933410395        0.1696937393
 C         -1.6866348606       -0.7084484096        1.1788191897
 C         -2.9226111803        0.0248303310        0.8877619002
 C         -3.5355050207       -0.1475399185       -0.2974904997
 C         -4.8186735606        0.5058077722       -0.7339653792
 C         -4.6380562201        1.9198793022       -1.3017103688
 C         -4.3310000894        3.0021864418       -0.2661098386
 H         -4.4615119691        3.9657958920       -0.7627396884
 H         -5.0618135892        2.9500472519        0.5419630915
 C         -2.9121185793        2.9411886211        0.3158153010
 H         -2.2642886497        2.3489866010       -0.3354614894
 H         -2.4826811589        3.9459650109        0.3374886411
 C         -2.8271243991        2.3873290307        1.7380088008
 H         -1.7704570591        2.3435262102        2.0150655405
 H         -3.3278268687        3.0711327007        2.4279065311
 C         -3.4309719597        0.9885932709        1.9173772506
 H         -4.5189475396        1.0442589214        1.8795252109
 H         -3.1331741095        0.6123902105        2.8995665304
 H         -3.8410333703        1.8986877221       -2.0489753191
 H         -5.5665349202        2.1877586327       -1.8116794685
 H         -5.2382071310       -0.1290157775       -1.5174979992
 H         -5.5185012603        0.5350020722        0.1019175610
 O         -3.0547032113       -0.9821741884       -1.2569048700
 C         -1.8888938316       -1.7090909490       -1.0583601305
 O         -1.5512916621       -2.4115517889       -2.0305020008
 O         -1.0842515102       -0.5448435201        2.2745825096
 C          0.0335186185       -2.3868045701        0.3983360888
 C          1.1070326584       -1.9744132803       -0.5797295914
 C          2.0313504379       -2.8604388706       -1.1197506619
 C          3.0119176779       -2.4057828108       -1.9847557620
 C          3.1126292384       -1.0645660707       -2.3080145317
 C          2.1960139589       -0.1696908205       -1.7683543812
 C          1.2035573489       -0.6329434403       -0.9205269411
 H          0.4782360593        0.0664935699       -0.5357707207
 N          2.2547768194        1.2019850196       -2.0558536709
 S          1.8402953601        2.3007114394       -0.8640194305
 O          0.4095996702        2.3543008100       -0.7053288901
 O          2.4735270105        3.5338218193       -1.2827330403
 C          2.6364579003        1.6878933287        0.6106181191
 C          4.0178248603        1.7274393682        0.6406641988
 C          4.6830072404        1.2141148076        1.7410845685
 C          3.9590020404        0.6652332276        2.7892260785
 C          2.5743746304        0.6389599482        2.7476058689
 C          1.9028298503        1.1548148488        1.6497413792
 H          0.8253774003        1.1335909992        1.5977678595
 H          2.0006581505        0.2126227583        3.5552945589
 H          4.4753254905        0.2575069572        3.6439327783
 H          5.7601573304        1.2386995572        1.7774647682
 H          4.5442392103        2.1712381682       -0.1887527413
 H          3.0625227793        1.4968135894       -2.5838523710
 H          3.8824544583       -0.7126508109       -2.9773144218
 H          3.7159194475       -3.1063830909       -2.4072590024
 H          1.9787068376       -3.9075325806       -0.8706612921
 H          0.3762257189       -2.1013682605        1.4053745488
 C         -0.2514619421       -3.8745105800        0.3864631785
 C          0.5426868378       -4.8059462506        1.2516087580
 C         -0.8828319620       -4.4978614501        1.5942642285
 H         -1.6296308424       -5.2637714297        1.4485989085
 H         -1.0799550815       -3.8524360802        2.4378902687
 H          0.7745042673       -5.7896686806        0.8720001877
 H          1.3147320581       -4.3770632710        1.8722609679
 H         -0.5766451525       -4.2262708296       -0.5860780315
