  62
        -98.93822183
 C          2.6720349088       -1.1982448665       -0.2260473949
 C          3.0819077387       -0.2602604654       -1.2087346697
 C          4.2865353100        0.5179791287       -0.9055549818
 C          4.9457111019        0.2987516868        0.2463867335
 C          6.2080117710        0.9867306298        0.6905822326
 C          5.9749734351        2.3436909594        1.3687368843
 C          5.5529146005        3.4753646303        0.4308852114
 H          5.6380133312        4.4066568742        0.9943541606
 H          6.2530330179        3.5346455090       -0.4030425288
 C          4.1195870324        3.3525040403       -0.1049793144
 H          3.6149448985        4.3174885879       -0.0198461251
 H          3.5593891492        2.6439497886        0.5096163851
 C          4.0239410038        2.9196342858       -1.5680702498
 H          2.9665226448        2.8272893442       -1.8290531737
 H          4.4633878413        3.6884077384       -2.2076270497
 C          4.7057349149        1.5802015518       -1.8763098508
 H          4.3965562081        1.2590538969       -2.8740633297
 H          5.7891861402        1.6981040278       -1.8668364962
 H          5.2225413090        2.2186974580        2.1507480627
 H          6.9117747754        2.6311000523        1.8517336852
 H          6.8746532848        1.1147682353       -0.1627805416
 H          6.6880593655        0.3200992050        1.4102461910
 O          4.5335402134       -0.6205262213        1.1563962653
 C          3.3786610170       -1.3728636358        0.9649581545
 O          3.1225814282       -2.1371213945        1.9122329375
 O          2.4703116209       -0.0923889595       -2.2984458631
 C          1.4223722371       -2.0007847088       -0.5403245086
 C          0.1906550685       -1.3146507211       -0.0068166621
 C          0.0956851789       -0.9296523142        1.3270200576
 C         -1.0490686234       -0.3117481010        1.7965687364
 C         -2.1150721022       -0.0578798203        0.9506877321
 C         -2.0291451135       -0.4326674373       -0.3830473069
 C         -0.8803271835       -1.0597102747       -0.8504519016
 H         -0.8127884034       -1.3408887828       -1.8929765626
 N         -3.0958556668       -0.1576274511       -1.2520343305
 S         -4.6587622697       -0.5295822478       -0.7698215421
 O         -4.6768600618       -1.6543457756        0.1359042318
 O         -5.4031110632       -0.6824535293       -2.0004174970
 C         -5.2134602072        0.9410881859        0.0656860531
 C         -5.0977790157        2.1491776869       -0.5936319162
 C         -5.5388521899        3.3007053811        0.0383841455
 C         -6.0883207351        3.2248504291        1.3097185328
 C         -6.2004784833        2.0038573653        1.9567801993
 C         -5.7599523257        0.8481277765        1.3306145301
 H         -5.8213920183       -0.1218661017        1.7979919222
 H         -6.6278327383        1.9470626524        2.9450279643
 H         -6.4308885153        4.1228846508        1.7991222661
 H         -5.4524671870        4.2522764874       -0.4610911515
 H         -4.6668772177        2.1663804021       -1.5808354516
 H         -2.9312251127       -0.4332952920       -2.2091533514
 H         -3.0074180602        0.4243332574        1.3148844648
 H         -1.1119590679       -0.0218704359        2.8345808038
 H          0.9258829626       -1.1260711487        1.9888537384
 H          1.3549471720       -1.9838373762       -1.6401733189
 C          1.5188824803       -3.4612077455       -0.1219020951
 C          0.7283814770       -4.0664585081        0.9947406979
 C          0.3907711768       -4.4032554129       -0.4247491592
 H          0.6229796348       -5.3896764763       -0.7965706341
 H         -0.5156614639       -3.9796987624       -0.8322407605
 H          1.2181642284       -4.8087257222        1.6060909517
 H          0.0463015289       -3.4361411900        1.5428091640
 H          2.5228683787       -3.8507156517       -0.2579536300
