  62
        -98.93449228
 C          2.6397615790        0.4738957216        0.1963564933
 C          2.2474035180        1.3292644780       -0.8640013541
 C          1.5176229447        2.5569594985       -0.5106438493
 C          1.2417111776        2.7999596828        0.7816373294
 C          0.5496603661        3.9856900420        1.4109959725
 C         -0.6268935908        4.6202674237        0.6647065751
 C         -1.5649809611        3.6214472088       -0.0278289782
 H         -1.3292170119        2.6007627581        0.2820376464
 H         -2.5926506365        3.8262089682        0.2795087367
 C         -1.4989115195        3.7011045532       -1.5541394385
 H         -2.4085018779        3.2584060035       -1.9663136352
 H         -1.4730723360        4.7502160277       -1.8585836138
 C         -0.3154079335        2.9627093202       -2.1746893358
 H         -0.3537714772        3.1031503129       -3.2579938268
 H         -0.4177577599        1.8916979055       -1.9785484720
 C          1.0690126998        3.4026206235       -1.6680803961
 H          1.7951299509        3.2219642905       -2.4656337274
 H          1.0820087309        4.4622005156       -1.4224846036
 H         -0.2525966685        5.3313426983       -0.0703750634
 H         -1.1880536407        5.1962920083        1.4032049017
 H          1.3078540551        4.7527034971        1.6002545314
 H          0.2092436315        3.6258638402        2.3858670999
 O          1.6407679550        1.9543419611        1.7735125890
 C          2.3101112119        0.7634159617        1.5190798763
 O          2.5566519320        0.1074785749        2.5489302145
 O          2.5217547681        1.0793195255       -2.0696353796
 C          3.2913379442       -0.8342433203       -0.2212734358
 C          2.2167188664       -1.7474530806       -0.7611321002
 C          2.4110961945       -2.5106245010       -1.9062046707
 C          1.3838473323       -3.2850674798       -2.4168917797
 C          0.1343130891       -3.2800033384       -1.8232406467
 C         -0.0688872767       -2.5189259576       -0.6779569980
 C          0.9798038447       -1.7930281851       -0.1358287816
 H          0.8068473051       -1.2185658694        0.7632354140
 N         -1.3247789178       -2.4407066463       -0.0519322198
 S         -1.7595195293       -0.8981028843        0.5075066103
 O         -1.2353358157        0.1116577116       -0.3797978690
 O         -1.3958063407       -0.7954339022        1.8991641233
 C         -3.5359876835       -0.9748364741        0.3651903457
 C         -4.2504687033       -1.6831350038        1.3132048863
 C         -5.6281023472       -1.7666491570        1.1880417214
 C         -6.2643909553       -1.1445023332        0.1237988227
 C         -5.5341584731       -0.4353169123       -0.8178684633
 C         -4.1556240915       -0.3494183100       -0.6997487884
 H         -3.5447082962        0.1953779519       -1.4017938579
 H         -6.0311462451        0.0509157721       -1.6417101902
 H         -7.3367489579       -1.2100650698        0.0295952980
 H         -6.1993474779       -2.3142856010        1.9200602337
 H         -3.7129024817       -2.1396455554        2.1280128871
 H         -2.0642616882       -2.8629820076       -0.5974818268
 H         -0.6790546673       -3.8500948105       -2.2458036454
 H          1.5481840695       -3.8741989328       -3.3062969160
 H          3.3643085325       -2.4717835575       -2.4125882983
 H          3.9532245502       -0.5794491937       -1.0659499811
 C          4.1460884458       -1.4904954453        0.8491829607
 C          3.6799061741       -2.6661230945        1.6488892569
 C          4.7466742289       -2.8449483934        0.6130306343
 H          5.7596884017       -3.0209115887        0.9411498085
 H          4.4767264020       -3.3619117863       -0.2949509894
 H          3.9482610081       -2.6979047241        2.6935258357
 H          2.6941508158       -3.0560593835        1.4450802162
 H          4.7612940640       -0.7681925729        1.3746553805
