  62
        -98.94311182
 C         -1.8403514803       -0.8331097908        0.7070247794
 C         -2.8153728404       -1.1969093798       -0.2541094808
 C         -4.1509141604       -0.6077589299       -0.0677972400
 C         -4.3787595902        0.2086768091        0.9758394307
 C         -5.6724971001        0.9197472690        1.2453505416
 C         -5.6919470001        2.3061369496        0.5864175128
 C         -5.2708212703        2.2981910309       -0.8832776372
 H         -5.3518709603        3.3240158912       -1.2495182763
 H         -4.2172067303        2.0164920609       -0.9506766776
 C         -6.1029322705        1.3684549818       -1.7775980680
 H         -7.0419267604        1.1205574614       -1.2813252680
 H         -6.3532503806        1.9007216326       -2.6977000674
 C         -5.3905521406        0.0785444921       -2.1884655392
 H         -4.4074182007        0.3188233724       -2.6009858592
 H         -5.9738880408       -0.3925436271       -2.9839948496
 C         -5.2053688505       -0.9632694489       -1.0781556002
 H         -6.1617581305       -1.1524466093       -0.5868890203
 H         -4.8691936107       -1.8922755585       -1.5474656511
 H         -6.6992837901        2.7169156096        0.6762844834
 H         -5.0084671900        2.9592459690        1.1343295033
 H         -6.4974711702        0.3165183594        0.8713923711
 H         -5.7810813499        1.0387595780        2.3247487317
 O         -3.4250348400        0.5184727582        1.8913456609
 C         -2.1402583201        0.0175683183        1.7751824102
 O         -1.3662369999        0.3879604974        2.6818354805
 H          1.2910277899        0.7264575787        1.0081963604
 C          1.1928870897        0.4671355897       -0.0359168498
 C          0.3558853896       -0.5733366599       -0.4168817107
 C          0.2234168094       -0.8626769887       -1.7713265309
 C          0.9118693593       -0.1227159578       -2.7149312503
 C          1.7591573394        0.9015887718       -2.3304795195
 C          1.8970236996        1.2009084505       -0.9806749593
 N          2.7508195797        2.2368967601       -0.5579172584
 S          3.8775662299        1.9044617489        0.6351496111
 O          3.2284338701        1.7564831678        1.9118665711
 O          4.8474246299        2.9722839589        0.5285222319
 C          4.6083886397        0.3611376393        0.1209967196
 C          4.1272603297       -0.8270238411        0.6322363086
 C          4.6494672396       -2.0198455307        0.1571869774
 C          5.6372379494       -2.0035379299       -0.8151668727
 C          6.1150893494       -0.8012285395       -1.3141234217
 C          5.5933482696        0.3939185601       -0.8470503005
 H          5.9418300996        1.3506051105       -1.2012261897
 H          6.8876346293       -0.7923099688       -2.0659326618
 H          6.0378806793       -2.9347200896       -1.1831942836
 H          4.2804512696       -2.9560455510        0.5449049766
 H          3.3625237998       -0.7959028217        1.3915989987
 H          3.1898562097        2.7378953807       -1.3175647680
 H          2.3013597893        1.4739870924       -3.0679336891
 H          0.7934357891       -0.3513924169       -3.7631273705
 H         -0.4489978507       -1.6467735983       -2.0796745415
 C         -0.4036882703       -1.3321466308        0.6455012888
 H          0.0369691198       -1.0708604617        1.6173960389
 C         -0.3095491504       -2.8339675107        0.4659073274
 C          0.9541860496       -3.5323737511        0.8638104365
 C         -0.2901422103       -3.7112871218        1.6796844666
 H         -0.8060910604       -4.6587940917        1.6383321958
 H         -0.3420741902       -3.2294633127        2.6458297270
 H          1.7445544297       -2.9268373515        1.2809648270
 H          1.2980588894       -4.3591681406        0.2619925957
 H         -0.8429338006       -3.2033050598       -0.3991323729
 O         -2.6069580806       -1.9741907590       -1.2212921615
