  62
        -98.94341876
 C         -2.5112615733       -1.1480760000        0.0094945094
 C         -3.4436366052       -0.5742188979        0.9158044490
 C         -4.3765101304        0.4092607516        0.3584553925
 C         -4.3338662607        0.6948680846       -0.9551312464
 C         -5.2330574519        1.6556543066       -1.6842969324
 C         -4.7791977295        3.1195912121       -1.6013614423
 C         -4.9791910450        3.7864723128       -0.2397725827
 H         -4.8271033745        4.8580964413       -0.3830761729
 H         -6.0105605373        3.6448451497        0.0845709675
 C         -4.0208905547        3.2942392690        0.8539509822
 H         -3.1761296338        2.7765326610        0.3933477694
 H         -3.6132986828        4.1518049995        1.3938819052
 C         -4.6613617153        2.3702421811        1.8899319429
 H         -3.8853835904        2.0528327741        2.5911141417
 H         -5.4197295892        2.9196171558        2.4520578140
 C         -5.3088955895        1.1111080775        1.2988140762
 H         -6.2384721608        1.3681773746        0.7914277629
 H         -5.5342847313        0.4239785335        2.1179286465
 H         -3.7250695738        3.1748831213       -1.8830108440
 H         -5.3513218272        3.6801636829       -2.3442680045
 H         -6.2504187345        1.5665570313       -1.3023227016
 H         -5.2273640621        1.3519624988       -2.7333857777
 O         -3.4476766386        0.1045802678       -1.7975862538
 C         -2.5029583329       -0.8048238785       -1.3422108308
 O         -1.7446015654       -1.2148209230       -2.2457615719
 O         -3.4965356637       -0.8798944516        2.1363265622
 C         -1.5332672211       -2.1529261478        0.5951000099
 C         -0.1839440996       -1.5269759994        0.8594826991
 C          0.3228824318       -1.4480420790        2.1513505479
 C          1.5649875016       -0.8853387769        2.3875028578
 C          2.3228229911       -0.3848077325        1.3441423808
 C          1.8248329025       -0.4570603904        0.0495619713
 C          0.5836769671       -1.0320048229       -0.1852167357
 H          0.1994199818       -1.0822030353       -1.1934760363
 N          2.5690301586        0.0764529732       -1.0162306235
 S          4.1893137361       -0.3344989870       -1.1531383880
 O          4.5144623955       -0.1423197553       -2.5494840734
 O          4.4532892891       -1.6457840213       -0.6071141035
 C          5.0258270345        0.9067964727       -0.1880875893
 C          4.7632233015        2.2340634919       -0.4656197693
 C          5.4134171116        3.2125104859        0.2692327485
 C          6.3127111006        2.8495891983        1.2609686714
 C          6.5683581604        1.5127757273        1.5248916120
 C          5.9202917589        0.5289556227        0.7941284468
 H          6.0823042892       -0.5228300526        0.9682571980
 H          7.2677300588        1.2327553727        2.2961665340
 H          6.8169636283        3.6135837953        1.8313548006
 H          5.2166589992        4.2531212522        0.0671289277
 H          4.0594130194        2.4738591847       -1.2452766673
 H          2.1002968586        0.0035080721       -1.9078642960
 H          3.2894122780        0.0573736098        1.5221686875
 H          1.9462312927       -0.8316739445        3.3957675238
 H         -0.2694183816       -1.8222177528        2.9735893199
 H         -1.9643180278       -2.4341978726        1.5654372918
 C         -1.3856864577       -3.4087172139       -0.2421429894
 C         -0.8913427709       -4.6628696895        0.4113276759
 C         -2.3234009031       -4.5550204310       -0.0175756235
 H         -2.6530470982       -5.1252515269       -0.8730590484
 H         -3.0775212964       -4.4406159682        0.7474420312
 H         -0.2322378179       -5.3088811379       -0.1482079981
 H         -0.6745605451       -4.6239007083        1.4680692115
 H         -1.0739322328       -3.2153338885       -1.2604625465
