  62
        -98.93707853
 C         -1.5508590270       -1.3135298082        0.4743784406
 C         -1.9308414710       -0.8964475552       -0.8261854557
 C         -2.8028701869        0.2883924704       -0.8856957984
 C         -3.2119199848        0.8736575298        0.2537643739
 C         -4.0203155193        2.1355616500        0.3295792792
 C         -3.1032895514        3.3636431297        0.4235507052
 C         -1.9776083163        3.3746528896       -0.6115299901
 H         -1.4090725576        4.2958961212       -0.4657805702
 H         -1.2973630090        2.5429285307       -0.4102657770
 C         -2.4575366874        3.2987956682       -2.0682849962
 H         -3.5120097686        3.5715553093       -2.1245580508
 H         -1.9020243774        4.0310111308       -2.6584131203
 C         -2.2527132096        1.9395446097       -2.7406410172
 H         -1.2134673276        1.6209311589       -2.6184675531
 H         -2.4297997213        2.0613147230       -3.8126107342
 C         -3.1628591272        0.8062890983       -2.2494823320
 H         -4.2050441351        1.1291616062       -2.2819194118
 H         -3.0418424417       -0.0369619124       -2.9358615658
 H         -3.7128988663        4.2615034989        0.3086193366
 H         -2.6548280929        3.3825432232        1.4192245187
 H         -4.6587928762        2.2097434239       -0.5482633451
 H         -4.6476952383        2.0919764338        1.2212616507
 O         -2.8725267778        0.4119104955        1.4831335379
 C         -2.0138107759       -0.6661541827        1.6233993444
 O         -1.7349063786       -0.9463753656        2.8045520047
 H          0.4714341528       -0.1424804117       -0.2844419486
 C          1.0974920677       -0.9951797875       -0.5158546367
 C          0.6956386417       -2.2641382216       -0.1203424791
 C          1.5262843035       -3.3345416582       -0.4355837220
 C          2.7191058573       -3.1359290038       -1.1093594768
 C          3.1100821409       -1.8675677092       -1.5002931332
 C          2.2775630398       -0.7973271368       -1.2150529888
 N          2.6756421868        0.5120542769       -1.6049300574
 S          3.5784686973        1.2951832062       -0.4314991257
 O          3.8128369477        2.6326460487       -0.9254970559
 O          4.7423433820        0.4948473736       -0.1529063247
 C          2.5042791151        1.3476508557        0.9913639679
 C          1.5774196736        2.3670480232        1.0823599551
 C          0.6527438225        2.3422634857        2.1140697337
 C          0.6617906252        1.2965018690        3.0244477739
 C          1.5992936117        0.2807721092        2.9186911708
 C          2.5285000925        0.3006220957        1.8909828496
 H          3.2684140202       -0.4742982903        1.7698153279
 H          1.5906541272       -0.5337497525        3.6248549311
 H         -0.0760443009        1.2573394006        3.8102333100
 H         -0.0785626907        3.1306325566        2.1989382246
 H          1.5999316322        3.1605846336        0.3517342830
 H          1.8914645867        1.1019155709       -1.8478904560
 H          4.0392958504       -1.6901538248       -2.0160972610
 H          3.3516587551       -3.9809121849       -1.3342282995
 H          1.2414350200       -4.3337209440       -0.1490692569
 C         -0.5586127496       -2.4355568926        0.7076294845
 H         -0.2543346647       -2.3136563684        1.7613085574
 C         -1.1502152443       -3.8385352564        0.5941109693
 C         -2.6204119535       -4.0673600461        0.4126957594
 C         -1.6727109524       -4.3655851603       -0.7076415626
 H         -1.4822462473       -5.3977988153       -0.9623142044
 H         -1.6598801145       -3.6895556817       -1.5482783883
 H         -3.2600119391       -3.2015375050        0.3189634864
 H         -3.0768656798       -4.8905238454        0.9424209132
 H         -0.6467400353       -4.5532864959        1.2368061337
 O         -1.5496923195       -1.4509555651       -1.8890973164
