  62
        -98.94476706
 C         -1.9945400739       -0.3432418532       -0.1443428932
 C         -2.9937987890       -0.7983586502        0.7535783832
 C         -4.2004442374        0.0314721460        0.8566707304
 C         -4.2776137378        1.1686915801        0.1417613570
 C         -5.4612080248        2.0910714673        0.1224050062
 C         -6.4416384993        1.7177716741       -0.9982122264
 C         -6.8048168896        0.2332705159       -1.0319676890
 H         -7.5258472169        0.0934872431       -1.8402634415
 H         -5.9152396606       -0.3453409331       -1.2910464755
 C         -7.3950883006       -0.3057872914        0.2785110706
 H         -7.7452460175        0.5224432327        0.8956250539
 H         -8.2640228084       -0.9238463136        0.0428897966
 C         -6.4372555829       -1.1760650694        1.0942842954
 H         -7.0155561467       -1.6784318211        1.8742544859
 H         -6.0109649081       -1.9512950691        0.4527326090
 C         -5.2860330208       -0.4346935588        1.7856598811
 H         -5.6826105306        0.4018206944        2.3647836136
 H         -4.8077277340       -1.1345876470        2.4770050054
 H         -7.3479871591        2.3136474404       -0.8757872203
 H         -5.9886691881        1.9816949985       -1.9567102451
 H         -5.9630120165        2.0489249654        1.0872502435
 H         -5.1013931545        3.1077105233       -0.0452924640
 O         -3.2894173623        1.5883015280       -0.6871153275
 C         -2.1279542399        0.8475903367       -0.8583931251
 O         -1.3224700569        1.3550650075       -1.6624129925
 O         -2.8797726243       -1.8510692590        1.4358100318
 C         -0.7285156302       -1.1749680839       -0.2716782991
 C          0.4029508526       -0.4398506432        0.4028029370
 C          0.5994478698       -0.5899251989        1.7723843373
 C          1.6138364383        0.0906204473        2.4204367914
 C          2.4525212805        0.9365255141        1.7161776983
 C          2.2577470517        1.0990369090        0.3510505195
 C          1.2472991203        0.4056026040       -0.3008336196
 H          1.0965502580        0.5539166701       -1.3583265621
 N          3.1174525121        1.9494866936       -0.3694695666
 S          4.7570539846        1.6579951653       -0.1927537515
 O          5.2346405569        2.2967754312        1.0084268733
 O          5.3676366947        2.1013148012       -1.4265936204
 C          4.8812050453       -0.1147112100       -0.0243797528
 C          4.4404409021       -0.8984887857       -1.0725479529
 C          4.4733784035       -2.2765623686       -0.9389626573
 C          4.9425660348       -2.8449690048        0.2355199712
 C          5.3860259062       -2.0447881138        1.2766337712
 C          5.3527635846       -0.6651817836        1.1495158500
 H          5.6817817604       -0.0056836623        1.9358564420
 H          5.7517757718       -2.4899210222        2.1878510387
 H          4.9619987907       -3.9184879403        0.3381396300
 H          4.1276902418       -2.9010967351       -1.7470463752
 H          4.0851780784       -0.4258344996       -1.9741410741
 H          2.8642588938        2.0461745735       -1.3420037397
 H          3.2491123888        1.4778821401        2.2007194022
 H          1.7544803452       -0.0378924627        3.4827620758
 H         -0.0620142107       -1.2422231169        2.3248095589
 H         -0.9270009610       -2.0881603308        0.3050130563
 C         -0.4215164942       -1.5599895770       -1.7045497987
 C          0.6435458816       -2.5813227790       -1.9685954001
 C         -0.7972931127       -2.9241164221       -2.1962025738
 H         -1.1504541994       -3.0255055444       -3.2116278468
 H         -1.2806376719       -3.5919524787       -1.4984023388
 H          1.2810087448       -2.4492764721       -2.8293908652
 H          1.1399814102       -3.0114473939       -1.1120226561
 H         -0.5205524474       -0.7387983602       -2.4035918620
