  62
        -98.94947125
 C          1.0471045120        1.7423031481        0.1081808209
 C          1.6837938514        0.9722650742        1.1101105493
 C          2.8347507486        0.1740116874        0.6739745281
 C          3.2125062612        0.2005667957       -0.6171009850
 C          4.3658719993       -0.5569237965       -1.2167917529
 C          4.0327040785       -2.0129530166       -1.5709350372
 C          3.9332865652       -2.9663223114       -0.3792838191
 H          3.9415521810       -3.9812554362       -0.7818506685
 H          4.8174713603       -2.8565164548        0.2502582388
 C          2.6660287203       -2.7875923684        0.4680816978
 H          1.9148806696       -2.2497491758       -0.1165614647
 H          2.2386450610       -3.7686156337        0.6919197534
 C          2.8902573597       -2.0778984173        1.8037016364
 H          3.5291081760       -2.6963656241        2.4387058396
 H          1.9235925258       -1.9744057353        2.3024244783
 C          3.5245170915       -0.6855573658        1.6911884052
 H          3.4288487894       -0.1888549457        2.6602624770
 H          4.5833281960       -0.7765072709        1.4488549632
 H          4.8203401056       -2.3758246718       -2.2358303500
 H          3.0911007983       -2.0325685224       -2.1261948747
 H          5.2184687631       -0.5316742295       -0.5369232417
 H          4.6371608019       -0.0319378878       -2.1353469510
 O          2.5827007614        0.9626335976       -1.5497302323
 C          1.4789726645        1.7368885024       -1.2190369755
 O          0.9904912323        2.3671287466       -2.1764421806
 O          1.3082329104        0.9528267443        2.3138499152
 C         -0.1741530664        2.5572373738        0.4809161359
 C         -1.4171303668        2.0812528399       -0.2360202389
 C         -2.5491549022        2.8816334452       -0.3554162639
 C         -3.6844873488        2.4010206978       -0.9832890836
 C         -3.7284788577        1.1143012518       -1.4909669227
 C         -2.6030250131        0.3071790659       -1.3783179776
 C         -1.4665051544        0.7969122363       -0.7541795651
 H         -0.5928720066        0.1684053012       -0.7074310235
 N         -2.5878082752       -0.9979820751       -1.8878520321
 S         -1.6574609730       -2.1852160342       -1.1720126953
 O         -0.2581358130       -1.9705034513       -1.4433259830
 O         -2.2159583420       -3.4202457450       -1.6798424298
 C         -2.0014570663       -2.0429188385        0.5717700857
 C         -1.0551173496       -1.5300181147        1.4331937325
 C         -1.3778425150       -1.3664485901        2.7707178978
 C         -2.6369553900       -1.7256097257        3.2244267913
 C         -3.5749586150       -2.2548940354        2.3499347889
 C         -3.2593523457       -2.4102206013        1.0104371215
 H         -3.9589538713       -2.8229956480        0.3019448441
 H         -4.5513132973       -2.5395444716        2.7075586449
 H         -2.8862947768       -1.5934832134        4.2654153019
 H         -0.6416718936       -0.9411916822        3.4351124068
 H         -0.0821815553       -1.2565136209        1.0576582880
 H         -3.4736446872       -1.3472538653       -2.2203661627
 H         -4.6156256548        0.7417454407       -1.9793376663
 H         -4.5526805341        3.0357686732       -1.0742905921
 H         -2.5364135513        3.8849995107        0.0383411886
 H         -0.3227225042        2.3806664535        1.5579935293
 C          0.0803136162        4.0376504371        0.2654460998
 C         -0.4552823702        5.0559392731        1.2261072728
 C          1.0116444227        4.7536896703        1.1962675875
 H          1.6874816862        5.4886801844        0.7857091618
 H          1.4325986814        4.1808141050        2.0097857226
 H         -0.7889428317        6.0055620483        0.8356132658
 H         -1.0220100602        4.6998194371        2.0732349011
 H          0.1277805289        4.2995987741       -0.7855084082
