  62
        -98.94236705
 C         -0.7214854915       -1.2879078943        0.1151227780
 C         -1.4417205323       -0.7019192862        1.1798862409
 C         -2.3903911232        0.3657406404        0.8184475171
 C         -2.5040551865        0.7270780201       -0.4717809499
 C         -3.5037948661        1.6799212551       -1.0676657539
 C         -4.7579706976        0.9188227762       -1.5333040413
 C         -5.8406092379        0.7428032266       -0.4695857669
 H         -6.3045692250        1.7100784757       -0.2654908975
 H         -6.6103573927        0.0938233052       -0.8935371517
 C         -5.3670235125        0.1393476920        0.8551248307
 H         -6.2402726281       -0.2677110465        1.3687675346
 H         -4.6897630209       -0.6943228970        0.6601952126
 C         -4.6829146823        1.1615362080        1.7748060305
 H         -5.1296465646        1.1089607956        2.7699248713
 H         -4.8800804858        2.1661393233        1.4010489395
 C         -3.1701331591        0.9641956008        1.9573661057
 H         -2.7133704268        1.9228215391        2.2267107623
 H         -2.9924417055        0.2882862662        2.7999594356
 H         -4.4398211420       -0.0604899547       -1.8993630597
 H         -5.1997171094        1.4546561615       -2.3757504122
 H         -3.0291417732        2.1270697634       -1.9418681438
 H         -3.7634453127        2.4639948620       -0.3628473305
 O         -1.7336781108        0.1883796021       -1.4551629311
 C         -0.8226978559       -0.8196823468       -1.1944439014
 O         -0.1842167757       -1.2084848620       -2.1892916009
 O         -1.3184811369       -1.0726405047        2.3800317020
 C          0.1939227074       -2.4642957314        0.3999106773
 C          1.6049568567       -2.1566653632       -0.0304413722
 C          2.3559351216       -2.9871535415       -0.8518389447
 C          3.6468364688       -2.6371516706       -1.2075102429
 C          4.2129804111       -1.4605931998       -0.7544785294
 C          3.4732184624       -0.6287675177        0.0800842886
 C          2.1823984510       -0.9821523069        0.4372977903
 H          1.6170481822       -0.3377995809        1.0957652378
 N          4.0297668793        0.5594647314        0.5707375200
 S          3.0915999778        1.8363106699        1.0653347898
 O          4.0040545231        2.9615274374        1.0671309827
 O          2.4679723794        1.5449185081        2.3325369463
 C          1.8447867969        2.1176342313       -0.1798505526
 C          0.6508347516        2.6757704368        0.2294044261
 C         -0.2950041567        3.0174610242       -0.7224890055
 C         -0.0379638675        2.7801904425       -2.0635003544
 C          1.1571787391        2.2020275291       -2.4583423395
 C          2.1150856074        1.8769828247       -1.5115505086
 H          3.0537479484        1.4347759486       -1.8029634818
 H          1.3465629694        2.0020421146       -3.5005229668
 H         -0.7740185987        3.0429705052       -2.8067805663
 H         -1.2259120475        3.4646379507       -0.4134215330
 H          0.4844917615        2.8262483868        1.2846975369
 H          4.9031681861        0.8470113993        0.1565260017
 H          5.2178593319       -1.1856832969       -1.0357944256
 H          4.2182406755       -3.2878557098       -1.8516947858
 H          1.9301436675       -3.9056201393       -1.2197510599
 H          0.1910258438       -2.5793614083        1.4942801732
 C         -0.3746316237       -3.7222639061       -0.2244482336
 C         -0.0775230948       -5.0635382771        0.3744531831
 C         -1.4476239042       -4.4711310423        0.5053049023
 H         -2.2553341943       -4.9037028178       -0.0659623804
 H         -1.7517074598       -4.0875285867        1.4684848923
 H          0.0531504191       -5.9070996220       -0.2863589241
 H          0.5486120378       -5.0899187933        1.2534297079
 H         -0.4631807812       -3.6487609526       -1.3027353420
