  62
        -98.94257976
 C          1.1758197920        1.5550723941        0.5235423275
 C          2.1160917729        1.2299317544       -0.4810890568
 C          3.1450887308        0.2385054580       -0.1208570708
 C          3.1279392612       -0.3235530118        1.1019789224
 C          4.0492634134       -1.3413626012        1.7406744916
 C          4.9767637531       -2.1991902107        0.8841036432
 C          4.2663232696       -3.1784681942       -0.0494780032
 H          3.7711437805       -3.9423666129        0.5556349504
 H          5.0244286851       -3.6758413591       -0.6591527533
 C          3.2103510399       -2.5731291858       -0.9723014344
 H          2.3680644515       -2.2007595065       -0.3834870049
 H          2.8146373500       -3.3787711430       -1.5979952057
 C          3.7076492497       -1.4662669439       -1.9011031498
 H          2.8984332548       -1.2444282495       -2.6024612457
 H          4.5622488378       -1.8277732434       -2.4769391506
 C          4.0981157710       -0.1449765496       -1.2150510119
 H          4.0429259089        0.6509522105       -1.9635537926
 H          5.1193606256       -0.1763094361       -0.8428947024
 H          5.5823580193       -2.7882775846        1.5784732174
 H          5.6621043943       -1.5712234983        0.3224951796
 H          4.6593955009       -0.7863615005        2.4623325340
 H          3.3971082761       -1.9982518296        2.3253781663
 O          2.2027141555        0.0280732107        2.0419444207
 C          1.1934732502        0.9337106418        1.7695448214
 O          0.3828618432        1.0980461715        2.7056762141
 H         -0.4628241175       -0.0947977521       -0.2048697772
 C         -0.9994804301        0.5192990265       -0.9100150004
 C         -0.8453292617        1.8973275481       -0.8723860256
 C         -1.5243274542        2.6623106595       -1.8129468475
 C         -2.3201485922        2.0502511685       -2.7663946873
 C         -2.4709187269        0.6752066011       -2.7969462235
 C         -1.7976867143       -0.0981043736       -1.8580808232
 N         -1.8989100348       -1.4964501286       -1.8500868223
 S         -1.8326499947       -2.3438429870       -0.4115566509
 O         -0.4975473262       -2.3309356327        0.1312820268
 O         -2.3626454436       -3.6477967021       -0.7502434072
 C         -2.9788476259       -1.4990239300        0.6633275859
 C         -4.3247450839       -1.6425341637        0.3814607077
 C         -5.2520857863       -0.9687666643        1.1577601176
 C         -4.8206316184       -0.1581529896        2.1974572078
 C         -3.4685916593       -0.0277372045        2.4706850302
 C         -2.5350812465       -0.7036929745        1.6993118039
 H         -1.4788920389       -0.6111583279        1.9002402384
 H         -3.1211900481        0.5991365733        3.2766609977
 H         -5.5404127775        0.3722696737        2.8006362994
 H         -6.3046668753       -1.0744254004        0.9504745722
 H         -4.6190670485       -2.2920621337       -0.4268360478
 H         -2.5701082966       -1.8874451147       -2.4937705851
 H         -3.0904459912        0.2034867031       -3.5438554141
 H         -2.8355486602        2.6548916234       -3.4970206591
 H         -1.4231079535        3.7353104868       -1.8046325910
 C          0.0235357356        2.4911498652        0.2132174321
 H         -0.5809434925        2.5425434669        1.1319446171
 C          0.5260444355        3.8814628452       -0.1174192040
 C         -0.2807180457        5.0879963363        0.2554002994
 C          0.9790929069        4.7696284865        1.0011944073
 H          1.8465741538        5.3931714523        0.8459128937
 H          0.8963929487        4.3805823585        2.0059771622
 H         -1.2202329114        4.9265899281        0.7621595266
 H         -0.2769128246        5.9366802513       -0.4119279671
 H          1.0952520860        3.9078876190       -1.0390672082
 O          2.1009459822        1.7383819545       -1.6327484953
