  62
        -98.93781454
 C          1.6678572400        0.2777224496        1.0023475590
 C          2.9004970300        0.9398011495        0.7798197586
 C          4.0690286200        0.0642060995        0.5837834786
 C          3.9191695100       -1.2706955805        0.6372668589
 C          5.0126444499       -2.2703662806        0.3980662689
 C          5.0747102096       -2.6802680709       -1.0799193510
 C          5.0764139494       -1.4973757811       -2.0483275313
 H          5.1541929293       -1.9044827113       -3.0588280412
 H          4.1153783095       -0.9818415811       -1.9832093312
 C          6.2095642295       -0.4882268211       -1.8155022017
 H          6.9961315296       -0.9462937010       -1.2147198418
 H          6.6495112693       -0.2275728013       -2.7804927819
 C          5.7690140796        0.8217590791       -1.1593344819
 H          6.5915682196        1.5370900490       -1.2433081622
 H          4.9183000095        1.2365325090       -1.7059185518
 C          5.3903816599        0.7319394394        0.3245428182
 H          6.1895895000        0.2365720995        0.8794862981
 H          5.2899134000        1.7532113095        0.7036890680
 H          5.9728266296       -3.2810629610       -1.2344612411
 H          4.2056488796       -3.3034459510       -1.3029102307
 H          5.9640146100       -1.8426211705        0.7081139486
 H          4.8079235300       -3.1550633005        1.0033084791
 O          2.7234942500       -1.8698681605        0.8703465192
 C          1.5752660400       -1.1167664504        1.0411506393
 O          0.5445598901       -1.7931932004        1.2301342896
 O          3.0412049400        2.1886867495        0.7408219883
 C          0.3533636401        1.0121571596        1.2078405391
 C         -0.3064822502        1.3058219494       -0.1145712809
 C          0.3679162197        1.9778102491       -1.1295670911
 C         -0.2644046606        2.2401557689       -2.3309234411
 C         -1.5743977106        1.8463727289       -2.5406770508
 C         -2.2541915204        1.1660242191       -1.5362456605
 C         -1.6122825402        0.8945927393       -0.3355320405
 H         -2.1383651601        0.3609832295        0.4401224397
 N         -3.5655661705        0.7290680691       -1.7387688001
 S         -4.6190376402        0.3956824693       -0.4917245799
 O         -5.9145193604        0.3384129292       -1.1334271596
 O         -4.4899503700        1.3447410996        0.5891019599
 C         -4.1572994202       -1.2366808106        0.0456784204
 C         -4.0366144003       -2.2267790308       -0.9088541094
 C         -3.6849015703       -3.5045793207       -0.5065069992
 C         -3.4629343200       -3.7701371104        0.8361506808
 C         -3.5933849498       -2.7666857502        1.7828755506
 C         -3.9445011299       -1.4862835703        1.3862166704
 H         -4.0482104498       -0.6759422201        2.0912486903
 H         -3.4156053397       -2.9741730800        2.8258747706
 H         -3.1829120400       -4.7640323103        1.1476999810
 H         -3.5801728204       -4.2885893808       -1.2392713891
 H         -4.2178008805       -1.9840564710       -1.9427426894
 H         -4.0187949506        1.0470529789       -2.5811804201
 H         -2.0675464608        2.0587434387       -3.4769081607
 H          0.2658415193        2.7648935087       -3.1115262113
 H          1.3849853197        2.2976801892       -0.9614892514
 H         -0.2920924798        0.2966614898        1.7421544793
 C          0.4808263403        2.2438290198        2.0947477788
 C          0.2680084502        3.6445831897        1.6139442185
 C         -0.7549454796        2.9958424399        2.4943043088
 H         -0.8506993794        3.3317296001        3.5159644288
 H         -1.6892284297        2.6955647598        2.0406953291
 H          0.8995487503        4.4150317098        2.0294860182
 H          0.0198403200        3.8003463095        0.5761422485
 H          1.2368879104        2.1127548200        2.8622165387
