  62
        -98.93744046
 C          2.2581453701        0.9410233403        0.4051941890
 C          2.4951735900        0.0204711702       -0.6427476309
 C          3.3253140899       -1.1498413398       -0.3051590009
 C          3.7722732000       -1.3029782797        0.9528943591
 C          4.5922261900       -2.4309710097        1.5283096091
 C          5.7575335599       -2.9630348298        0.6831825391
 C          6.4662016099       -1.9098534399       -0.1809840811
 H          6.1416487500       -0.9086410899        0.1077424489
 H          7.5411677799       -1.9681606800       -0.0004531911
 C          6.2299484098       -2.1104534101       -1.6798764210
 H          7.0190057997       -1.5938864801       -2.2315779411
 H          6.3150682597       -3.1750723601       -1.9082639210
 C          4.8935834998       -1.5905100900       -2.2082246510
 H          4.8032780097       -1.8955492901       -3.2534356309
 H          4.8892303598       -0.4973051400       -2.1922043311
 C          3.6479854498       -2.0714129799       -1.4459671808
 H          2.7942654497       -2.0149583399       -2.1267892408
 H          3.7608810898       -3.1007383299       -1.1147549108
 H          6.4731603899       -3.4057457998        1.3781207490
 H          5.4043633398       -3.7692061299        0.0418166592
 H          4.9740371501       -2.0479793097        2.4778835091
 H          3.9153294300       -3.2573778197        1.7646455892
 O          3.4839134401       -0.4082516196        1.9423383790
 C          2.7311942802        0.7272988304        1.6975370490
 O          2.5478527303        1.4502969805        2.6995788790
 H         -0.1509302799        0.4071447405        1.3185815192
 C         -0.6412662199        0.8424098005        0.4552889593
 C          0.0375218401        1.7958977104       -0.2941625409
 C         -0.6083613700        2.3604827403       -1.3855174609
 C         -1.8888950700        1.9586330703       -1.7256548007
 C         -2.5520545900        0.9951431704       -0.9889300206
 C         -1.9222465800        0.4359753105        0.1157137594
 N         -2.5835861400       -0.5496478494        0.8693256895
 S         -4.1513790199       -0.2410641193        1.3861670796
 O         -4.3839688098        1.1745978407        1.5551922895
 O         -4.3310436499       -1.0672115492        2.5601907897
 C         -5.1668196600       -0.8771144893        0.0694773897
 C         -6.0829227600       -0.0548615294       -0.5566381203
 C         -6.8656325302       -0.5774423094       -1.5745970202
 C         -6.7201437202       -1.9055720894       -1.9448269301
 C         -5.7973080702       -2.7188269294       -1.3037879901
 C         -5.0121899901       -2.2028787894       -0.2853035802
 H         -4.2861304501       -2.8008182494        0.2400616498
 H         -5.6869210703       -3.7512592495       -1.5940570900
 H         -7.3297399803       -2.3099587295       -2.7373861000
 H         -7.5838335102        0.0527298806       -2.0739766302
 H         -6.1579626400        0.9726659607       -0.2380256803
 H         -2.0275784999       -0.9210177294        1.6258820795
 H         -3.5459803301        0.6754424105       -1.2555798105
 H         -2.3758816601        2.4000579003       -2.5816983907
 H         -0.1080147500        3.1114467402       -1.9741484010
 C          1.4287977201        2.1854555203        0.1459913290
 H          1.3426974502        2.7003076404        1.1147265390
 C          2.1429411001        3.0974760202       -0.8294533511
 C          1.9282876202        4.5792058702       -0.7739841712
 C          3.2294177302        3.9927507802       -0.3172269913
 H          4.1071574301        4.1414886101       -0.9281140714
 H          3.4362160203        3.9646482703        0.7431832487
 H          1.2528816102        4.9591635203       -0.0222603112
 H          1.9159213701        5.1341124002       -1.6999036713
 H          2.2910105800        2.6350827501       -1.7983548911
 O          2.0316203399        0.1594761701       -1.8032513409
