  62
        -98.94388171
 C          1.8550808070        1.1355141220       -0.4720601414
 C          1.9050749344       -0.0291028694        0.3321398710
 C          3.2119649634       -0.3311585191        0.9303808446
 C          4.2523232238        0.4963252259        0.7236105749
 C          5.6363562548        0.3376198369        1.2923168697
 C          6.5416625421       -0.6004439573        0.4822965644
 C          6.2023426181       -2.0875297606        0.5921117228
 H          7.0381837151       -2.6392649337        0.1571609983
 H          6.1404630111       -2.3680111315        1.6441373955
 C          4.9110732779       -2.4969558371       -0.1298720678
 H          5.0912788848       -3.4048739888       -0.7098574092
 H          4.6274614863       -1.7154675991       -0.8385430832
 C          3.7280894685       -2.7781264447        0.7967470800
 H          2.8604019428       -3.0203766546        0.1783153005
 H          3.9499370750       -3.6464394534        1.4211455302
 C          3.3484157254       -1.6045389368        1.7093551132
 H          2.3787401335       -1.8210614433        2.1646721524
 H          4.0875795299       -1.4903465450        2.5020316317
 H          6.5110025011       -0.2958391906       -0.5664417641
 H          7.5636578575       -0.4553045996        0.8401164786
 H          5.5713628811       -0.0166874091        2.3215989613
 H          6.0870404804        1.3325875029        1.2955749332
 O          4.1545326568        1.6218154090       -0.0339986792
 C          2.9661464260        1.9559953792       -0.6643430581
 O          3.0224733279        2.9973933907       -1.3506081677
 O          0.9166336195       -0.7752066725        0.5448477288
 C          0.5651706303        1.5227177635       -1.1687779872
 C         -0.5573869988        1.7358387907       -0.1811269712
 C         -0.2926786657        2.2541465701        1.0826852112
 C         -1.3082195423        2.4426539607        2.0016190922
 C         -2.6176107574        2.1341836266        1.6767189188
 C         -2.8973966273        1.6415575947        0.4107618388
 C         -1.8745226853        1.4453519639       -0.5088534603
 H         -2.1123702611        1.0555863574       -1.4869458848
 N         -4.2366878951        1.3253822507        0.0831580164
 S         -4.8356258466       -0.0802157652        0.7762478672
 O         -6.2010664785       -0.1976594713        0.3172760517
 O         -4.6385378884       -0.0127760045        2.2006371059
 C         -3.8413006370       -1.3725446679        0.0548254643
 C         -2.5447136858       -1.5378049913        0.4987841799
 C         -1.7298017050       -2.4594923765       -0.1395385035
 C         -2.2263444701       -3.2005440323       -1.2007217773
 C         -3.5351537056       -3.0307797878       -1.6285523457
 C         -4.3494164800       -2.1004535636       -1.0038318809
 H         -5.3688224449       -1.9273480063       -1.3095405907
 H         -3.9176262321       -3.6126352235       -2.4519144949
 H         -1.5870162453       -3.9133760827       -1.6981132772
 H         -0.7062353647       -2.5584038495        0.1848269699
 H         -2.1774991555       -0.9500388761        1.3243353804
 H         -4.4030509651        1.2888240919       -0.9137435524
 H         -3.4193223167        2.2532346600        2.3868320070
 H         -1.0778811704        2.8337408520        2.9813289427
 H          0.7276772053        2.4990097552        1.3448760864
 H          0.7660730232        2.4833943153       -1.6665307403
 C          0.2224750605        0.4866092283       -2.2230526470
 C         -0.4225201842        0.8904452185       -3.5141198409
 C          1.0131446557        0.4615075481       -3.4951536413
 H          1.2745232622       -0.4944115452       -3.9231494746
 H          1.7751049128        1.2179668416       -3.6182035879
 H         -1.1472637593        0.2248124845       -3.9590225502
 H         -0.6313877839        1.9389684396       -3.6661618647
 H         -0.0576511713       -0.4663748338       -1.7884916731
