  62
        -98.93759690
 C          1.9615361926        1.4569595146       -0.2391032591
 C          1.8298476238        0.0764226501       -0.5095413736
 C          3.0680243430       -0.7289817316       -0.4664720613
 C          4.2337332957       -0.1127862077       -0.1957534343
 C          5.6037404271       -0.7241036520       -0.0658419048
 C          5.7970777506       -1.4663428803        1.2660392196
 C          4.6303601839       -2.3603905752        1.6775830668
 H          4.8444094235       -2.7454166075        2.6782388874
 H          3.7241553127       -1.7562802666        1.7514729763
 C          4.3721013888       -3.5552802376        0.7626460380
 H          5.2729968547       -4.1711504963        0.7154870192
 H          3.5853075898       -4.1545670479        1.2281460943
 C          3.9330960207       -3.2230636426       -0.6653779767
 H          3.5451902844       -4.1452161667       -1.1079452791
 H          4.7792218476       -2.9208084909       -1.2765978529
 C          2.8167429908       -2.1881421117       -0.7626299280
 H          2.4049117070       -2.2139820498       -1.7785863749
 H          1.9917965795       -2.4896090800       -0.1066222179
 H          6.7095242349       -2.0614634599        1.2000465107
 H          5.9379773709       -0.7198424061        2.0517511541
 H          5.8020333574       -1.3813375633       -0.9071796354
 H          6.3199317642        0.0994137528       -0.1113689806
 O          4.3108881074        1.2277342121        0.0493000671
 C          3.1943593380        2.0405423069        0.0435774267
 O          3.4216258300        3.2405633056        0.3020472111
 H         -1.9765644223        1.9977161872       -0.6525327888
 C         -1.6512475328        1.6890729416        0.3288570582
 C         -0.3159178019        1.8019934941        0.6836585437
 C          0.0651076184        1.4032071938        1.9621794436
 C         -0.8590663272        0.8863266567        2.8496052365
 C         -2.1901272940        0.7673326065        2.4888226336
 C         -2.5838645623        1.1726105968        1.2211818236
 N         -3.9419925749        1.0733749603        0.8548734326
 S         -4.6541742696       -0.4405074885        0.7929068203
 O         -6.0165463158       -0.2049607450        0.3719906146
 O         -4.4806949509       -1.0948676510        2.0641019769
 C         -3.7763245431       -1.3207865178       -0.4860493536
 C         -2.4927397029       -1.7621279790       -0.2337578140
 C         -1.7907368939       -2.3916831972       -1.2488029049
 C         -2.3824934321       -2.5701211268       -2.4896052243
 C         -3.6744218738       -2.1248424049       -2.7262717471
 C         -4.3782772153       -1.4870237692       -1.7179668786
 H         -5.3828790666       -1.1209337565       -1.8568975776
 H         -4.1309726567       -2.2674136932       -3.6927787886
 H         -1.8299308995       -3.0578063880       -3.2774259875
 H         -0.7771347425       -2.7104024661       -1.0706172776
 H         -2.0544025888       -1.6050110119        0.7383660431
 H         -4.1633227139        1.5742343827        0.0053653168
 H         -2.9210009426        0.3510042737        3.1624569919
 H         -0.5428524179        0.5754440098        3.8342698808
 H          1.1042565352        1.4962628114        2.2489298398
 C          0.7326316971        2.3465587955       -0.2554859462
 H          1.0591102551        3.3253495461        0.1257813980
 C          0.2420797716        2.5168745757       -1.6789408181
 C         -0.4597055926        3.7740571445       -2.0951051654
 C          0.9366958603        3.5033802311       -2.5668586402
 H          1.0916705609        3.2454914997       -3.6037293645
 H          1.7458866309        4.0736769775       -2.1340177134
 H         -1.2623364088        3.7049813528       -2.8142280777
 H         -0.6012909128        4.5402512418       -1.3477155465
 H         -0.0738269716        1.5796143563       -2.1234587759
 O          0.7285915422       -0.4720662676       -0.7698466116
