  62
        -98.93778073
 C         -1.9905912185       -0.9267297136       -0.0003698335
 C         -2.3100799359        0.0293313718        0.9883668138
 C         -2.5509545180        1.4053804013        0.5247204322
 C         -2.4389491198        1.6885930626       -0.7866451806
 C         -2.5586688525        3.0013162939       -1.5327727302
 C         -3.2232753358        4.2132331486       -0.8841836363
 C         -4.7173586919        4.0544814067       -0.6064259026
 H         -5.2466651940        4.0122775161       -1.5614628579
 H         -5.0600654676        4.9443272590       -0.0739744947
 C         -5.1096969655        2.8152498878        0.1941260572
 H         -4.8792497052        1.9173313323       -0.3828476393
 H         -6.1934917479        2.8380657840        0.3360504656
 C         -4.4634405112        2.6959543499        1.5732814095
 H         -4.9576682405        1.8734618088        2.0971025471
 H         -4.6398255679        3.6099236637        2.1434830686
 C         -2.9524668145        2.3998128620        1.5756770210
 H         -2.6960952170        1.9472568728        2.5383705887
 H         -2.3660845856        3.3113470787        1.4815082614
 H         -3.1036826097        5.0434867009       -1.5856267931
 H         -2.6953735927        4.4900730937        0.0236955207
 H         -3.0782940633        2.7646083577       -2.4667010097
 H         -1.5335787489        3.2739630186       -1.8088153361
 O         -2.1176122416        0.7317144177       -1.7058773072
 C         -1.8781534431       -0.5831449890       -1.3459318682
 O         -1.5908530206       -1.3327305114       -2.2991059803
 O         -2.3843426859       -0.2527686500        2.2172833348
 C         -1.6942736801       -2.3532953495        0.4159375667
 C         -0.2917099024       -2.7503849694        0.0207621543
 C          0.0473506271       -4.0508689239       -0.3323482221
 C          1.3535831587       -4.3687769837       -0.6624099028
 C          2.3436953145       -3.4046339833       -0.6526299105
 C          2.0136388058       -2.0977579212       -0.3065745832
 C          0.7101330789       -1.7888348281        0.0434901207
 H          0.4698345598       -0.7741647396        0.3269696047
 N          2.9869083227       -1.0867385377       -0.3461901015
 S          2.7464166876        0.3870436362        0.4233587957
 O          2.4714852489        0.1892407615        1.8305263400
 O          1.7777296776        1.1554228198       -0.3193342604
 C          4.3673403662        1.1000424487        0.2151471741
 C          4.6944919253        1.6458227118       -1.0119043901
 C          5.9611320788        2.1780080967       -1.1926674467
 C          6.8751953970        2.1552979148       -0.1494796326
 C          6.5322545899        1.6060854984        1.0767201627
 C          5.2670955640        1.0711660289        1.2636807977
 H          4.9519934008        0.6414737116        2.2008971189
 H          7.2436443036        1.5926333593        1.8865627914
 H          7.8598900114        2.5712054650       -0.2927284500
 H          6.2296092596        2.6082547220       -2.1439816633
 H          3.9474477628        1.6484452964       -1.7887611302
 H          3.9337660007       -1.4259532285       -0.2546437821
 H          3.3591636232       -3.6522482540       -0.9203110632
 H          1.6032761104       -5.3834005992       -0.9332701115
 H         -0.7126068236       -4.8149651175       -0.3501918881
 H         -1.7497389249       -2.3545895318        1.5161030828
 C         -2.7520749114       -3.2942853495       -0.1262436905
 C         -3.1896251369       -4.4896131633        0.6651185977
 C         -4.1024540414       -3.3102108615        0.5233410895
 H         -4.9761385970       -3.4014554766       -0.1042205086
 H         -4.2444880473       -2.6655390957        1.3787164126
 H         -3.4405755625       -5.3952835188        0.1337318235
 H         -2.7231543321       -4.6526119399        1.6250609469
 H         -2.7147689931       -3.3770119135       -1.2067649559
