  62
        -98.94112294
 C          1.9476353714        0.8925446623       -0.2119756835
 C          2.6200617250        0.3433300852        0.9106994300
 C          2.9835215337       -1.0755805727        0.8333659672
 C          2.6256359054       -1.7816454684       -0.2540151343
 C          2.9613251067       -3.2257957465       -0.4885727215
 C          4.2897900895       -3.3731054626       -1.2439283202
 C          5.4321719801       -2.5492953857       -0.6494465324
 H          6.3242611965       -2.7536224928       -1.2453286068
 H          5.2024770000       -1.4878235132       -0.7669995455
 C          5.7250215946       -2.8436033451        0.8283859966
 H          5.2847538910       -3.8008638521        1.1093517765
 H          6.8054385488       -2.9313609426        0.9601686232
 C          5.2446809890       -1.7618977660        1.7976651112
 H          5.6058935143       -0.7856018731        1.4651639480
 H          5.6898102269       -1.9602265536        2.7761838284
 C          3.7263712509       -1.6698332512        1.9971846065
 H          3.3259793421       -2.6549013434        2.2457232565
 H          3.5407061918       -1.0002835237        2.8421006589
 H          4.5657632388       -4.4291083852       -1.2534935598
 H          4.1366445845       -3.0516214743       -2.2767388667
 H          3.0159466257       -3.7387929719        0.4698080007
 H          2.1608012986       -3.6703723402       -1.0826131691
 O          1.9546532443       -1.2354102397       -1.2977397710
 C          1.5989464347        0.1076269352       -1.3118854930
 O          1.0056862881        0.4471914506       -2.3550387849
 H         -0.7576997692        1.1443184270       -0.8317625302
 C         -0.8792502015        1.7987691561        0.0185623618
 C          0.2035100439        2.5090430562        0.5168277267
 C          0.0081317597        3.3495856185        1.6066333764
 C         -1.2396333232        3.4652704669        2.1925329699
 C         -2.3087549148        2.7294443395        1.7159508992
 C         -2.1244015683        1.8898963775        0.6225951293
 N         -3.1887546829        1.1328610354        0.1091623883
 S         -2.8576361937       -0.4349602458       -0.4322179183
 O         -1.8360354677       -1.0381187980        0.3943522160
 O         -2.6130851874       -0.3946272893       -1.8513276548
 C         -4.4347062733       -1.2139186747       -0.1279331084
 C         -5.4301702088       -1.1019706022       -1.0802683112
 C         -6.6674907462       -1.6725916720       -0.8266762087
 C         -6.8887784062       -2.3398404889        0.3689901462
 C         -5.8798163564       -2.4455756861        1.3146023137
 C         -4.6402374951       -1.8765444118        1.0674781356
 H         -3.8229681948       -1.9403182359        1.7680826123
 H         -6.0529531187       -2.9677622817        2.2417196239
 H         -7.8525445675       -2.7828440333        0.5640320989
 H         -7.4526972897       -1.5948725217       -1.5611346254
 H         -5.2070123986       -0.5814482784       -1.9970407577
 H         -4.0133056596        1.1617241220        0.6935446945
 H         -3.2788100280        2.8010664745        2.1839353198
 H         -1.3768890610        4.1199139846        3.0396075155
 H          0.8481046769        3.8979559191        2.0063763238
 C          1.5715167668        2.3604669387       -0.1076370441
 H          2.3007545954        2.7981104489        0.5890999256
 C          1.6391322336        3.1267328528       -1.4131419221
 C          1.8704448002        4.6068010325       -1.3777721798
 C          2.9503099740        3.6906327997       -1.8681245402
 H          3.1779626973        3.6709514931       -2.9231123262
 H          3.8094252359        3.5287784964       -1.2333554988
 H          1.3536210234        5.2233506414       -2.0967517416
 H          2.0019277688        5.0710155149       -0.4123115288
 H          0.9742797915        2.7368620464       -2.1729834488
 O          2.9135256371        1.0217639345        1.9328870418
