  62
        -98.94480340
 C         -2.0488288514       -1.3213043786       -0.0082616736
 C         -2.6771875483       -0.7013105418        1.0975144767
 C         -3.8490324678        0.1289731915        0.7901412196
 C         -4.2453500153        0.2581774881       -0.4894944642
 C         -5.3864322371        1.1174099601       -0.9499857498
 C         -4.9064410016        2.5307474750       -1.3084989851
 C         -4.0291875610        3.1755346620       -0.2352222314
 H         -3.0922436098        2.6183076434       -0.1592515477
 H         -3.7759651444        4.1798762156       -0.5819528623
 C         -4.6825970425        3.2623487166        1.1513400840
 H         -4.5004509376        4.2578125331        1.5619430504
 H         -5.7626290665        3.1428281467        1.0594153609
 C         -4.1464777173        2.2553672326        2.1706947375
 H         -3.0551139139        2.3109443228        2.2001079973
 H         -4.5142010862        2.5443634254        3.1588440620
 C         -4.5499554081        0.7931010076        1.9420487538
 H         -5.6332631458        0.7251595579        1.8249020966
 H         -4.2643402447        0.2272413382        2.8337006971
 H         -4.3288451109        2.4762324222       -2.2342855313
 H         -5.7813365215        3.1574965582       -1.4902345104
 H         -5.8270708936        0.6578071864       -1.8362113354
 H         -6.1388276808        1.1659007079       -0.1652539678
 O         -3.6120449584       -0.3459852363       -1.5264852780
 C         -2.4929964901       -1.1402357292       -1.3184364194
 O         -2.0011373247       -1.6160793330       -2.3580582545
 O         -2.2724141389       -0.8306307784        2.2851000755
 C         -0.8284872982       -2.1917260303        0.2335783382
 C          0.3699663495       -1.6011750212       -0.4680057639
 C          1.2167942717       -2.3311353237       -1.2906660952
 C          2.2875794973       -1.7158227766       -1.9173786030
 C          2.5445135707       -0.3709344894       -1.7297101324
 C          1.7182047409        0.3634970317       -0.8872457404
 C          0.6479567270       -0.2549038526       -0.2603333396
 H          0.0025178976        0.3201784074        0.3923259826
 N          1.9808122862        1.7260956275       -0.6716011967
 S          3.5676444238        2.2013419352       -0.4379914574
 O          3.4865624983        3.4018503037        0.3643796971
 O          4.2261911634        2.3414772514       -1.7128414103
 C          4.3253855487        0.8777757433        0.4885775910
 C          5.4099993747        0.2039388337       -0.0346266220
 C          5.9642844737       -0.8394109238        0.6896620754
 C          5.4241985387       -1.1913425345        1.9166644755
 C          4.3365047250       -0.5019241216        2.4309859432
 C          3.7799147833        0.5433898598        1.7123414381
 H          2.9364179127        1.1006990458        2.0879355592
 H          3.9169412943       -0.7764158730        3.3856227402
 H          5.8523476648       -2.0071070069        2.4774808701
 H          6.8111088610       -1.3758088387        0.2930659332
 H          5.7954048219        0.5083392690       -0.9941006832
 H          1.3599868612        2.1681348437       -0.0105432737
 H          3.3602096566        0.1256536429       -2.2295109692
 H          2.9285520312       -2.2921659661       -2.5666483630
 H          1.0320446051       -3.3797868794       -1.4535104622
 H         -0.6473388930       -2.1430373816        1.3176961661
 C         -1.1144850385       -3.6284941456       -0.1472859798
 C         -0.3879542273       -4.7483441935        0.5339834310
 C         -1.8364223377       -4.5051767520        0.8302615625
 H         -2.5676806386       -5.2042803602        0.4531000729
 H         -2.1001049165       -4.0722588546        1.7842909636
 H         -0.1246661170       -5.6201054845       -0.0456486246
 H          0.3341259358       -4.4871795497        1.2924633084
 H         -1.3641356935       -3.7395373609       -1.1963423935
