  62
        -98.94457913
 C         -0.8309598864       -1.0364297460        0.7586591048
 C         -1.1838705514       -0.6036357346       -0.5438732040
 C         -2.1325503077        0.5203723627       -0.6042606752
 C         -2.4802373418        1.1545740522        0.5281901101
 C         -3.4947570975        2.2563655579        0.6188398292
 C         -4.8945225536        1.6900094522        0.8990010345
 C         -5.2899448751        0.5338840898       -0.0202877999
 H         -4.6420662808       -0.3220500810        0.1830461020
 H         -6.3054441492        0.2368174088        0.2508611678
 C         -5.2369077181        0.8648293399       -1.5185154913
 H         -6.1409305719        0.4778783561       -1.9934000419
 H         -5.2357604874        1.9462614944       -1.6587267540
 C         -4.0468322794        0.2551595034       -2.2622942530
 H         -4.2245477022        0.3654920047       -3.3352291008
 H         -3.9933566612       -0.8155819149       -2.0491293163
 C         -2.6801335399        0.8815456681       -1.9557816161
 H         -1.9615472810        0.4913666392       -2.6818907150
 H         -2.7415641927        1.9637339072       -2.0764339110
 H         -4.9233461630        1.3308801291        1.9305740070
 H         -5.6209694984        2.4988793022        0.8016970332
 H         -3.2140098189        2.9224326261        1.4360067564
 H         -3.5022522943        2.8181483835       -0.3126062580
 O         -1.9741911426        0.8214726817        1.7440965319
 C         -1.1752546046       -0.2998892555        1.8943348782
 O         -0.8302466751       -0.5267430303        3.0722691005
 H          1.9943642864       -0.5554052566        0.9930181907
 C          2.1228676113       -1.2785302415        0.1998489772
 C          1.1841472961       -2.2915717066        0.0476183883
 C          1.3729532646       -3.2328623886       -0.9551486136
 C          2.4689223868       -3.1441756389       -1.7948953526
 C          3.3900809805       -2.1226030261       -1.6561183980
 C          3.2142293078       -1.1812023939       -0.6471737493
 N          4.1395018019       -0.1456252054       -0.4741385564
 S          3.8293772674        1.2030842068        0.4375209412
 O          4.8644160211        2.1362673026        0.0432071794
 O          3.7992797179        0.8639737938        1.8392015149
 C          2.2484509534        1.8609347790       -0.0649376537
 C          1.9088797201        1.8941983160       -1.4020539420
 C          0.7219000565        2.5030854053       -1.7755808926
 C         -0.0941649000        3.0760925041       -0.8135851884
 C          0.2555923641        3.0272506657        0.5262336045
 C          1.4359000779        2.4109115331        0.9058521139
 H          1.7392336131        2.3414307879        1.9390640636
 H         -0.3845636204        3.4622558667        1.2772344488
 H         -1.0075082150        3.5676744378       -1.1072360627
 H          0.4384884382        2.5306820956       -2.8152190887
 H          2.5632229509        1.4493376092       -2.1337579421
 H          4.8008858827        0.0036540783       -1.2196607762
 H          4.2382614820       -2.0493991568       -2.3190503375
 H          2.6022533476       -3.8756407977       -2.5774140671
 H          0.6477595418       -4.0167356648       -1.0979241540
 C          0.0049898531       -2.2844242266        0.9864702586
 H          0.3963339195       -2.1837309565        2.0125835034
 C         -0.8020052746       -3.5746334116        0.9507960491
 C         -2.2289381269       -3.5989390157        1.4097280697
 C         -1.9035980695       -3.8094839030       -0.0368853474
 H         -2.0196780383       -4.8020555711       -0.4469984318
 H         -2.1260476575       -3.0198022506       -0.7366076492
 H         -2.5672441002       -4.4423852240        1.9926724647
 H         -2.6730254071       -2.6591523117        1.7058065968
 H         -0.1972766753       -4.4350864802        1.2206998053
 O         -0.7586554381       -1.1269229722       -1.6040270799
