  62
        -98.94714042
 C          1.6381104223        1.5257373056       -0.2477042207
 C          2.8364675868        1.2269892918        0.4493766180
 C          3.6198415439        0.0963571113       -0.0639838115
 C          3.1705922789       -0.5823763524       -1.1352789297
 C          3.8406279684       -1.7869317583       -1.7296300270
 C          3.3193216895       -3.0906872994       -1.1080233069
 C          3.2723418311       -3.0731307378        0.4196905470
 H          2.5411992486       -2.3307824758        0.7481286076
 H          2.9106332838       -4.0508342768        0.7453013867
 C          4.6232098428       -2.7864318540        1.0903962925
 H          4.7598851626       -3.4876094094        1.9163305532
 H          5.4337226926       -2.9605710627        0.3815399433
 C          4.7576612634       -1.3795597575        1.6756193682
 H          3.8980258370       -1.1640908104        2.3151578640
 H          5.6491038175       -1.3585138856        2.3082084515
 C          4.8952176232       -0.2438228767        0.6537891959
 H          5.6877806185       -0.4827925813       -0.0582939593
 H          5.1840495125        0.6601017942        1.1979767341
 H          2.3099748218       -3.2757329718       -1.4816701441
 H          3.9579309650       -3.9096309963       -1.4442189616
 H          3.6374168532       -1.7991387903       -2.8019646030
 H          4.9152935230       -1.7058873226       -1.5771608492
 O          2.0216825911       -0.2629864033       -1.7820207633
 C          1.2230411087        0.7909754619       -1.3580317536
 O          0.2023601063        0.9581037565       -2.0522010764
 O          3.2317893376        1.8783129460        1.4521934877
 C          0.7670067758        2.6528717401        0.2850764002
 C         -0.4794545769        2.0159840102        0.8460562266
 C         -0.4457213017        1.4532104102        2.1193285053
 C         -1.5362840752        0.7657555423        2.6183082206
 C         -2.6749050958        0.6017145598        1.8480708769
 C         -2.7113619488        1.1491788342        0.5728777973
 C         -1.6305919306        1.8725530549        0.0875510264
 H         -1.6737754091        2.2839483799       -0.9080667965
 N         -3.8392043289        0.9306520892       -0.2404349375
 S         -4.3786709793       -0.6529416098       -0.3320294469
 O         -4.9534948000       -0.7903260367       -1.6523768592
 O         -5.2795555270       -0.9109897556        0.7653027661
 C         -2.9325362103       -1.6888437881       -0.1632478302
 C         -2.9307011420       -2.6903903333        0.7870696035
 C         -1.8085772586       -3.4921857837        0.9178496344
 C         -0.7080501020       -3.2772290745        0.1026073142
 C         -0.7267749488       -2.2688589739       -0.8477834027
 C         -1.8476750014       -1.4668165545       -0.9875528248
 H         -1.8594224930       -0.6711814702       -1.7157181602
 H          0.1278856724       -2.0825437872       -1.4793440927
 H          0.1699224195       -3.8952725317        0.2083256983
 H         -1.7925733057       -4.2773749149        1.6564284970
 H         -3.8040118701       -2.8161070199        1.4064496508
 H         -3.7426527801        1.3234749150       -1.1661350848
 H         -3.5289843105        0.0520257176        2.2096976728
 H         -1.4973783959        0.3414923188        3.6099247606
 H          0.4562730936        1.5493323147        2.7073231653
 H          1.3348622654        3.0941681983        1.1146699935
 C          0.5039779885        3.7246481808       -0.7506968205
 C         -0.0600497155        5.0421421026       -0.3121218255
 C          1.3636637784        4.9514137724       -0.7703306030
 H          1.6270360158        5.3797481584       -1.7258829451
 H          2.1455203384        5.0265782002       -0.0289574885
 H         -0.7761003444        5.5366209454       -0.9506751409
 H         -0.2457949113        5.1767762272        0.7427365851
 H          0.1877684078        3.3322134611       -1.7093926074
