  62
        -98.93128067
 C         -2.6169424003       -0.7250096593       -0.3814187618
 C         -1.9955258821       -1.4294729248        0.6771259227
 C         -0.9571196027       -2.4132599203        0.2969576335
 C         -0.7122054752       -2.6402720643       -1.0039479503
 C          0.3416860665       -3.5232728266       -1.6188544173
 C          1.7711923344       -3.2099760148       -1.1440392887
 C          2.3851912240       -4.3302743452       -0.3065100369
 H          2.1329405866       -5.2888636654       -0.7649160727
 H          3.4723954954       -4.2286670597       -0.3309951642
 C          1.9540481818       -4.3372021115        1.1577191326
 H          2.3945035145       -5.2206287934        1.6265403503
 H          2.3704575937       -3.4583518105        1.6557349233
 C          0.4425845524       -4.3548390479        1.4062663016
 H          0.2774486291       -4.8242770283        2.3789309088
 H         -0.0674896930       -4.9696741666        0.6668534475
 C         -0.1984550581       -2.9642969677        1.4747966482
 H         -0.9238240698       -2.9442254702        2.2959218407
 H          0.5566414165       -2.2134617559        1.7397536135
 H          2.3963162566       -3.0535370375       -2.0249135292
 H          1.7670006039       -2.2722639800       -0.5840064879
 H          0.1024538920       -4.5709759810       -1.4307539499
 H          0.2612893088       -3.3620697509       -2.6957436938
 O         -1.4426027491       -2.0437750334       -1.9914052872
 C         -2.3335224702       -1.0282550023       -1.7138748486
 O         -2.8332798715       -0.4908671004       -2.7253770393
 H         -0.9562762140        0.8071503149        0.7966886000
 C         -1.2749853967        1.6693718888        0.2305677972
 C         -2.5514458743        1.7180015037       -0.3103121382
 C         -2.9275375905        2.8543820678       -1.0166435565
 C         -2.0389671822        3.9022814591       -1.1873768493
 C         -0.7474478131        3.8209017168       -0.6980044638
 C         -0.3622898929        2.6876078608        0.0087211052
 N          0.9454842427        2.5199041768        0.4955694611
 S          1.5998459612        0.9647017476        0.3040976783
 O          1.1192076249        0.3757493125       -0.9235658837
 O          1.3792919021        0.2155450553        1.5154047849
 C          3.3361920559        1.3510321325        0.1644967082
 C          4.0599902319        1.5979484404        1.3160370834
 C          5.4005101715        1.9316549585        1.2053399477
 C          5.9914196183        2.0124717915       -0.0470508930
 C          5.2530402187        1.7587616007       -1.1932033347
 C          3.9112217582        1.4263909291       -1.0897847473
 H          3.2977668054        1.2127454291       -1.9506450122
 H          5.7153583563        1.8177962774       -2.1652830164
 H          7.0348972815        2.2718853919       -0.1304255809
 H          5.9784627754        2.1258189020        2.0943276041
 H          3.5598167268        1.5122455412        2.2666310588
 H          1.5830529191        3.2325830749        0.1662989436
 H         -0.0419277644        4.6196966909       -0.8693439220
 H         -2.3453324909        4.7793373975       -1.7369854479
 H         -3.9123530352        2.9014191456       -1.4578343582
 C         -3.4653368970        0.5211972477       -0.1798711453
 H         -4.1676495256        0.5510898114       -1.0290480490
 C         -4.2877719597        0.5313274911        1.0979164985
 C         -3.9116336341        1.3435107552        2.2967582480
 C         -5.0913723847        1.7438599400        1.4658699820
 H         -6.0813460231        1.5997114246        1.8710074666
 H         -4.9889141919        2.6202793898        0.8445388978
 H         -4.0765603408        0.9056642331        3.2690419935
 H         -3.0152390930        1.9421011853        2.2393818041
 H         -4.7418368796       -0.4337031574        1.2938566375
 O         -2.2642340420       -1.2534271254        1.8941783340
