  62
        -98.94339225
 C         -1.1148628668       -1.2917371308       -0.1317655799
 C         -1.9125514217       -0.8595216517        0.9602623015
 C         -2.8082616489        0.2754578514        0.7083488222
 C         -2.7956490252        0.8622992570       -0.5018864387
 C         -3.7025116387        1.9813937951       -0.9232812595
 C         -4.9878448234        1.4387826219       -1.5641218762
 C         -5.6763729771        0.3500849732       -0.7406864458
 H         -5.0358159207       -0.5343783555       -0.7113390101
 H         -6.5878471875        0.0678919032       -1.2721804032
 C         -6.0295821414        0.7662327646        0.6942416223
 H         -7.0472974533        0.4364136798        0.9135484066
 H         -6.0176309506        1.8534512512        0.7787732364
 C         -5.1248664702        0.1632915172        1.7707526371
 H         -5.0640117044       -0.9192395137        1.6331773858
 H         -5.5892398414        0.3428566505        2.7440592573
 C         -3.6976704598        0.7222475366        1.8341044784
 H         -3.2349421402        0.3444805927        2.7503629096
 H         -3.7344819976        1.8119859780        1.8910080386
 H         -4.7387235385        1.0215564986       -2.5425487438
 H         -5.6765096066        2.2718665851       -1.7161164630
 H         -3.9518015939        2.5911243281       -0.0569935728
 H         -3.1758314398        2.5964165608       -1.6543957942
 O         -1.9773609103        0.4617877004       -1.5045020157
 C         -1.1273542025       -0.6257274904       -1.3578231435
 O         -0.4575048150       -0.8710458959       -2.3794349564
 H          1.4446965192       -0.9275825858       -1.2690325858
 C          1.8831118666       -1.2631321824       -0.3406419326
 C          1.1543045618       -2.1062123065        0.4881980101
 C          1.7308897543       -2.5229118100        1.6816218829
 C          3.0046648678       -2.1078364371        2.0340064427
 C          3.7271856439       -1.2671301328        1.2057549260
 C          3.1555818538       -0.8435684982        0.0132140292
 N          3.8667915296        0.0542934213       -0.8203850795
 S          3.9393459360        1.6168772592       -0.2197291358
 O          4.4793041250        2.4300249139       -1.2845564289
 O          4.6863229259        1.5963586430        1.0116916034
 C          2.2462435802        2.0788256408        0.1051933448
 C          1.5647023748        2.8238074543       -0.8356144669
 C          0.2427863750        3.1606988942       -0.5947643136
 C         -0.3764167045        2.7326342742        0.5688354058
 C          0.3139624042        1.9645823968        1.4933013179
 C          1.6404247923        1.6369516932        1.2649837893
 H          2.2105969674        1.0562710753        1.9717876011
 H         -0.1790948349        1.6139108410        2.3862161980
 H         -1.4044282422        2.9963210489        0.7582714807
 H         -0.3007783553        3.7513959756       -1.3145869922
 H          2.0843525752        3.1374527591       -1.7269838887
 H          3.4856053093        0.0907484030       -1.7567989224
 H          4.7090302107       -0.9127488915        1.4738427835
 H          3.4380404469       -2.4390118305        2.9653866041
 H          1.1676129952       -3.1633136277        2.3444268147
 C         -0.2443471242       -2.5147224141        0.1078801956
 H         -0.6942238842       -3.0051107352        0.9852196039
 C         -0.2911304837       -3.5114419947       -1.0434262274
 C          0.8911328256       -3.8686133067       -1.8893596181
 C          0.3620678293       -4.8538488695       -0.8937125379
 H         -0.1590051362       -5.7287819785       -1.2515897372
 H          0.9475374377       -5.0212652170       -0.0020717497
 H          1.8373837329       -3.3945230366       -1.6816061727
 H          0.7169950919       -4.0441473721       -2.9401688485
 H         -1.2496226988       -3.4948683406       -1.5526010213
 O         -1.8843741955       -1.4116582691        2.0918957003
