  62
        -98.94224233
 C         -1.1840050197       -0.9808421693        0.4585515513
 C         -2.0350313797       -0.7289106199       -0.6414130189
 C         -2.9940414298        0.3808575000       -0.4896388495
 C         -2.9907166399        1.1107723006        0.6412064802
 C         -3.7996512301        2.3254893207        1.0468461795
 C         -5.0554876001        2.7233170702        0.2757660893
 C         -6.2180887300        1.7384173001        0.3937790198
 H         -6.5974098600        1.7704591405        1.4182005598
 H         -7.0184147300        2.0758587496       -0.2683125504
 C         -5.8848397598        0.2842209199        0.0702453805
 H         -6.7991147097       -0.3028188301        0.1919422008
 H         -5.1598424998       -0.0951161396        0.7931594607
 C         -5.3557461998        0.0331217393       -1.3405050493
 H         -5.3189010496       -1.0491869408       -1.4897766788
 H         -6.0502808598        0.4483533488       -2.0732503296
 C         -3.9491299198        0.5864332393       -1.6298783296
 H         -3.5343779697        0.0328439189       -2.4776124193
 H         -3.9850371500        1.6356160692       -1.9148462501
 H         -4.8137195201        2.9057162797       -0.7672653708
 H         -5.3866676603        3.6777115403        0.6944444388
 H         -4.0596259401        2.1724094512        2.0993453296
 H         -3.0962204702        3.1660248208        1.0223803391
 O         -2.1212438099        0.8527008112        1.6621094003
 C         -1.1998850398       -0.1761116487        1.5950362708
 O         -0.4602851098       -0.2710785281        2.5968132009
 H          0.7846530302        0.3050265506       -0.3280543694
 C          1.2489427103       -0.4816637796       -0.9019706490
 C          0.8592108405       -1.7979749496       -0.7002843183
 C          1.4489931106       -2.7878728199       -1.4768991678
 C          2.3930499806       -2.4552365703       -2.4332279279
 C          2.7865235804       -1.1424067903       -2.6212784186
 C          2.2047623603       -0.1456917800       -1.8463281391
 N          2.5663839301        1.2015952000       -1.9962401298
 S          2.6156602699        2.1985848907       -0.6550625403
 O          1.2819464999        2.5477520307       -0.2322336105
 O          3.4523172198        3.3051112205       -1.0697804709
 C          3.4630189801        1.2422099814        0.5898595002
 C          4.8124338201        1.0134917415        0.3950450603
 C          5.5029039602        0.2355642420        1.3087036207
 C          4.8341384402       -0.3055994675        2.3968172710
 C          3.4825971402       -0.0629825076        2.5811640809
 C          2.7862406401        0.7187018019        1.6717274405
 H          1.7326789501        0.9132972718        1.8003859103
 H          2.9513575602       -0.4783747372        3.4228938111
 H          5.3680656203       -0.9173132971        3.1067613813
 H          6.5557954202        0.0506120321        1.1698148609
 H          5.2980116900        1.4617721711       -0.4565250199
 H          3.3379174601        1.3716110597       -2.6241565199
 H          3.5261179004       -0.8873731706       -3.3643963687
 H          2.8360686307       -3.2323933905       -3.0370988775
 H          1.1639717507       -3.8179067599       -1.3384803272
 C         -0.1490344395       -2.0871340692        0.3873377718
 H          0.3875813905       -2.0594706986        1.3483140918
 C         -0.8179653393       -3.4386798493        0.2419847925
 C         -0.2021964292       -4.6595894389        0.8548818832
 C         -1.4431011793       -4.0673408388        1.4500055528
 H         -2.3781954392       -4.5939446990        1.3324026731
 H         -1.3591529394       -3.5325338483        2.3853280526
 H         -0.2876215891       -5.5988207492        0.3293728236
 H          0.7241469208       -4.5365754985        1.3953730531
 H         -1.3386172793       -3.5437649599       -0.7025509474
 O         -1.9949568396       -1.3912509005       -1.7115111085
