  62
        -98.94593947
 C         -2.1193450535       -1.4902580009        0.0003249371
 C         -1.8368795263       -0.3703201969       -0.8185601541
 C         -2.8974563627        0.6454751048       -0.8942339048
 C         -4.0523098156        0.4463504225       -0.2333345344
 C         -5.1907825093        1.4228818607       -0.1823280363
 C         -5.0578571820        2.3665701388        1.0213484528
 C         -3.6747759189        3.0036114865        1.1577901708
 H         -3.7097083078        3.6721857719        2.0206807827
 H         -2.9436510973        2.2242921718        1.3851510047
 C         -3.2115946765        3.7869877001       -0.0783093654
 H         -4.0689071126        4.0216450973       -0.7103406169
 H         -2.7829544643        4.7358245528        0.2506383845
 C         -2.1423927857        3.0790638610       -0.9126962721
 H         -1.7324250605        3.8036989824       -1.6212422105
 H         -1.3279135688        2.7521894250       -0.2615597298
 C         -2.6237060019        1.8687945888       -1.7229223723
 H         -1.8236452878        1.5869484140       -2.4135831752
 H         -3.5021224955        2.1425373298       -2.3108159137
 H         -5.8142704044        3.1485004104        0.9317632703
 H         -5.2642331937        1.7978463215        1.9311199391
 H         -6.1221367809        0.8613396185       -0.0911007310
 H         -5.2138819455        1.9966019162       -1.1067247084
 O         -4.2983067429       -0.6600267924        0.5146567298
 C         -3.3343413104       -1.6423924547        0.6682925352
 O         -3.6725839718       -2.5862905572        1.4110904369
 O         -0.7613708190       -0.2233730160       -1.4540224791
 C         -1.0736422078       -2.5767261613        0.1843176261
 C          0.1831385906       -1.9532902577        0.7399497479
 C          0.1100061457       -1.2834588952        1.9592065341
 C          1.2220951780       -0.6635628531        2.4948802384
 C          2.4316592841       -0.6874677397        1.8215422223
 C          2.5123188737       -1.3454779525        0.6023730802
 C          1.3964252617       -1.9835228214        0.0737486684
 H          1.4796244217       -2.4894401241       -0.8749540309
 N          3.7282068114       -1.3565190539       -0.0990997218
 S          4.6311676089        0.0501367002       -0.1449041615
 O          5.3874231987       -0.0306296952       -1.3755075864
 O          5.4158150590        0.1583840252        1.0609652941
 C          3.4614603409        1.3965629177       -0.2192795489
 C          3.5767516147        2.4411483219        0.6757446132
 C          2.6710189554        3.4872466662        0.6066188297
 C          1.6674022732        3.4687785786       -0.3495590830
 C          1.5656254567        2.4128648437       -1.2419090640
 C          2.4708759814        1.3667213887       -1.1802126377
 H          2.3986816397        0.5350383711       -1.8617904322
 H          0.7768271706        2.3838681733       -1.9757684318
 H          0.9583190788        4.2802368369       -0.3998983752
 H          2.7474322298        4.3097141676        1.2996340728
 H          4.3675118331        2.4110349918        1.4079624238
 H          3.6753394563       -1.7885495393       -1.0097918382
 H          3.3100578788       -0.2099518753        2.2245180351
 H          1.1489403298       -0.1520423014        3.4426479012
 H         -0.8385944983       -1.2532582687        2.4785608143
 H         -1.4781292337       -3.2655537530        0.9392050028
 C         -0.8702463192       -3.3379705396       -1.1085386067
 C         -0.3163749262       -4.7301152079       -1.0796888849
 C         -1.7605204410       -4.5041119177       -1.4103110787
 H         -2.0870521459       -4.6537854148       -2.4285823112
 H         -2.5046706738       -4.7649720233       -0.6718786830
 H          0.3472207764       -5.0405447507       -1.8728486991
 H         -0.0769809489       -5.1522358394       -0.1153850633
 H         -0.5986061544       -2.6947546914       -1.9376383839
