  62
        -98.94494394
 C         -0.9722907347       -1.3267782043        0.2105567809
 C         -1.9709828584       -1.0250041415        1.1692677711
 C         -2.6846285235        0.2451866443        0.9877257362
 C         -2.3172751108        1.0643246838       -0.0139814452
 C         -2.9833226818        2.3697140432       -0.3384379255
 C         -4.1128253271        2.1791597252       -1.3601939055
 C         -5.0838283562        1.0544162488       -1.0013089933
 H         -5.8561082086        1.0318519311       -1.7730705759
 H         -4.5556192879        0.0993269964       -1.0468636813
 C         -5.7434387251        1.2007292314        0.3771059732
 H         -5.6512640804        2.2301226642        0.7254228465
 H         -6.8096956403        0.9857073275        0.2802389933
 C         -5.1950554967        0.2543850057        1.4470758901
 H         -5.2006127849       -0.7707996488        1.0678486535
 H         -5.8681583397        0.2874631175        2.3079465161
 C         -3.7837324189        0.5699190668        1.9595438650
 H         -3.7281341101        1.6158615749        2.2697730996
 H         -3.5998989261       -0.0556422545        2.8383672958
 H         -4.6599945614        3.1193371839       -1.4495022693
 H         -3.6671029364        1.9496230417       -2.3305342352
 H         -3.3766428522        2.8063743869        0.5777669648
 H         -2.2346535910        3.0446430565       -0.7557220325
 O         -1.3173219631        0.7695845262       -0.8802820181
 C         -0.6153414412       -0.4256314738       -0.7940900064
 O          0.2774048709       -0.5483715101       -1.6517543635
 H          1.1666246841       -0.6318839454        1.4784230034
 C          1.8132061298       -1.2896936507        0.9156315867
 C          1.2763646418       -2.3900924028        0.2580850426
 C          2.1364126251       -3.2205302919       -0.4492047088
 C          3.4927820921       -2.9483108587       -0.4984485932
 C          4.0166252080       -1.8358788641        0.1324827727
 C          3.1628613913       -0.9946327007        0.8375976733
 N          3.6495371265        0.1583852104        1.4794075835
 S          2.7897271650        1.5839022409        1.3868573759
 O          3.7521197458        2.5992664323        1.7683306238
 O          1.6071286037        1.5164638069        2.2110105434
 C          2.3341844511        1.8466809549       -0.3182887208
 C          1.1802947820        2.5587847304       -0.5701968394
 C          0.8364344052        2.8418349332       -1.8813065320
 C          1.6460409420        2.4039313130       -2.9158127134
 C          2.8027618523        1.6913419522       -2.6473292587
 C          3.1579756645        1.4153422780       -1.3375079647
 H          4.0543321872        0.8612872982       -1.1126793106
 H          3.4270895923        1.3431409058       -3.4543695800
 H          1.3683679783        2.6130153672       -3.9369595554
 H         -0.0676664189        3.3906707773       -2.0924445113
 H          0.5665796153        2.8608234590        0.2648087621
 H          4.6389785416        0.3246709925        1.3640516133
 H          5.0724108948       -1.6162521364        0.0813774816
 H          4.1487681779       -3.6046829385       -1.0495353958
 H          1.7470054004       -4.0762270767       -0.9751917492
 C         -0.2094683266       -2.6277706100        0.3746299666
 H         -0.4154859403       -2.9322791340        1.4156999845
 C         -0.7111713163       -3.7584715800       -0.5143039906
 C         -2.0609340602       -3.7005042548       -1.1633797943
 C         -0.8231243803       -3.5995960779       -2.0002609247
 H         -0.5614489796       -4.4382466834       -2.6286220476
 H         -0.5598468967       -2.6388783121       -2.4138519078
 H         -2.6521988336       -2.8083822179       -1.0147455409
 H         -2.6453360033       -4.6075127180       -1.2086078614
 H         -0.4048847025       -4.7338636009       -0.1493271189
 O         -2.2493680802       -1.7846980726        2.1371543698
