  62
        -98.94432382
 C         -1.8362648034       -1.0725206530       -0.1484822860
 C         -2.3365212929        0.0613386583       -0.8324464745
 C         -3.8007890648        0.1933264251       -0.8630156722
 C         -4.5616102700       -0.7494796961       -0.2775010404
 C         -6.0592849682       -0.7097911267       -0.1887958105
 C         -6.5212036734       -0.0131858457        1.0989234379
 C         -5.8388670524        1.3309682656        1.3532626920
 H         -6.2636827067        1.7427952224        2.2712548981
 H         -4.7754635180        1.1626804656        1.5381550514
 C         -5.9976763730        2.3489743271        0.2153968521
 H         -6.8256414561        2.0561178374       -0.4312386488
 H         -6.2509276560        3.3197797251        0.6466102193
 C         -4.7410463947        2.5530909876       -0.6330889562
 H         -3.8861465064        2.7549005995        0.0175935418
 H         -4.8921196315        3.4378241884       -1.2575146203
 C         -4.3708339161        1.3929870533       -1.5658250248
 H         -5.2376952349        1.1132873499       -2.1681214410
 H         -3.5839122802        1.7465842922       -2.2387340889
 H         -7.6019458622        0.1298845343        1.0452633094
 H         -6.3069297378       -0.6711542080        1.9442307318
 H         -6.4556303428       -0.1892550859       -1.0583771741
 H         -6.4313062519       -1.7356912351       -0.1899328613
 O         -4.0434686462       -1.8350203633        0.3518930464
 C         -2.6733653272       -2.0186174615        0.4425684264
 O         -2.3302440092       -3.0429758909        1.0664688242
 H          1.8239725451        0.2116748608       -0.9273144750
 C          1.4117980241        0.5467985091        0.0094355700
 C          0.3232146587       -0.0967660683        0.5756214731
 C         -0.1832548121        0.3830666444        1.7818847634
 C          0.3675494235        1.4936198455        2.3891449431
 C          1.4455474970        2.1436739135        1.8135120136
 C          1.9651551428        1.6679045464        0.6163732841
 N          3.0499507137        2.3140073679        0.0104629925
 S          4.1931509262        1.4640690842       -0.8511464174
 O          5.3584955601        2.3231289598       -0.8410124811
 O          3.6931450615        1.1054254067       -2.1542557098
 C          4.5229295507       -0.0095079702        0.1010583178
 C          4.7528383178        0.1077461094        1.4577949951
 C          5.0217603685       -1.0350531474        2.1930811425
 C          5.0616286765       -2.2697750172        1.5633633073
 C          4.8374337823       -2.3702171310        0.1994418113
 C          4.5647217742       -1.2301432900       -0.5397872504
 H          4.3788323937       -1.2635436351       -1.6009333090
 H          4.8711545021       -3.3299318214       -0.2911627082
 H          5.2696930637       -3.1583637156        2.1383172039
 H          5.1985279299       -0.9599061002        3.2538988448
 H          4.7232105214        1.0795694273        1.9224173191
 H          3.4480244445        3.0798533930        0.5322723120
 H          1.8718901603        3.0189052765        2.2795112635
 H         -0.0432878497        1.8581593896        3.3186434550
 H         -1.0277710792       -0.1241308852        2.2290380215
 C         -0.3371186841       -1.2979208757       -0.0544062335
 H         -0.2002604363       -2.1571802666        0.6183363708
 C          0.2145771968       -1.6564496500       -1.4179235736
 C          1.4237676044       -2.5320537212       -1.5385990112
 C          0.0721943327       -3.0668088245       -1.9030814832
 H         -0.1553611172       -3.2337000373       -2.9452920488
 H         -0.3985134155       -3.7732716948       -1.2347413827
 H          2.1235015373       -2.3285521137       -2.3350986438
 H          1.8803112097       -2.8824179320       -0.6253824099
 H          0.0836550706       -0.8624333570       -2.1448331027
 O         -1.6026285268        0.9200478559       -1.3881384497
