  62
        -98.94176516
 C         -1.9654188137       -0.1472004797        0.7326745820
 C         -2.9979066828        0.8009394421        0.9406656260
 C         -4.3676932629        0.3401614688        0.6816041754
 C         -4.5689572400       -0.9325091418        0.2940904692
 C         -5.9039145619       -1.5209868777       -0.0577218322
 C         -6.2016547592       -1.3663049918       -1.5558055435
 C         -5.9792812741        0.0498041465       -2.0871168072
 H         -4.9154830950        0.2911170760       -2.0273373429
 H         -6.2485929522        0.0464172212       -3.1455530552
 C         -6.7842570950        1.1349070852       -1.3584162786
 H         -7.2269040563        1.8014947082       -2.1015822603
 H         -7.6047554300        0.6782801981       -0.8037061063
 C         -5.9584334217        2.0087454430       -0.4123727689
 H         -5.0825765139        2.3950910079       -0.9401005524
 H         -6.5695227363        2.8675434343       -0.1218551273
 C         -5.4819971546        1.3291623525        0.8776044351
 H         -6.3298158463        0.8603116173        1.3814965247
 H         -5.0796626161        2.1068961539        1.5335635148
 H         -5.5505302979       -2.0461382273       -2.1101580602
 H         -7.2360341557       -1.6653355159       -1.7347909637
 H         -5.8887203914       -2.5829179888        0.1931099508
 H         -6.6774036780       -1.0300275258        0.5296607289
 O         -3.5590887074       -1.8229737613        0.1311817729
 C         -2.2340046371       -1.4594690759        0.3376525416
 O         -1.4222426198       -2.3807168565        0.1333459151
 O         -2.7816013133        1.9809750996        1.3312505527
 C         -0.5428268503        0.2966324104        0.9979568184
 C          0.2922411423        0.4914864798       -0.2488954993
 C         -0.1434081864        0.1351528803       -1.5184179797
 C          0.6629678450        0.3420822873       -2.6241834322
 C          1.9197738779        0.9010578675       -2.4878396545
 C          2.3652210264        1.2717143413       -1.2236414948
 C          1.5484645467        1.0723283058       -0.1201906440
 H          1.9052454413        1.3837035824        0.8480337439
 N          3.6254905551        1.8684157373       -1.0567473650
 S          4.6660989413        1.3474320663        0.1458959351
 O          4.1103776426        1.6431737953        1.4403395982
 O          5.9286845531        1.9752914509       -0.1707592330
 C          4.7881056788       -0.4141740231       -0.1031133028
 C          3.8383238053       -1.2478076124        0.4530193042
 C          3.9038805928       -2.6064325264        0.1862335284
 C          4.9125466815       -3.1057986637       -0.6232905936
 C          5.8618719174       -2.2555477043       -1.1702147732
 C          5.7971172494       -0.8956187414       -0.9147154263
 H          6.5162525243       -0.1996029460       -1.3154641954
 H          6.6471483270       -2.6477401125       -1.7961836586
 H          4.9577885458       -4.1640806758       -0.8269087571
 H          3.1615789683       -3.2659069273        0.6076298756
 H          3.0681435333       -0.8312762236        1.0804352633
 H          4.1320528694        2.0102365382       -1.9188323108
 H          2.5465294602        1.0603889098       -3.3519066859
 H          0.3070004836        0.0584893922       -3.6030971478
 H         -1.1197377241       -0.3094232319       -1.6403628024
 H         -0.6335225063        1.2798279538        1.4839073724
 C          0.1543107106       -0.6495928995        1.9627594286
 C          1.0697203600       -0.1313231758        3.0295742951
 C         -0.2799710755       -0.6677951064        3.3974092861
 H         -0.3425996758       -1.6173682589        3.9069556121
 H         -1.0448829057        0.0364391102        3.6918396359
 H          1.9411801571       -0.7126988959        3.2928106118
 H          1.2263256801        0.9350533914        3.0987229748
 H          0.3918251387       -1.6043760936        1.5086545184
