  62
        -98.94141412
 C         -1.8081835300       -1.0057798018        0.6831167794
 C         -2.0264796005        0.3832011880        0.8885066205
 C         -3.3978532807        0.8646147777        0.6975350111
 C         -4.3679013604       -0.0075172324        0.3695935406
 C         -5.8243212706        0.3161824372        0.1747549411
 C         -6.1662474910        0.8394683381       -1.2269153885
 C         -5.6915866515        2.2627647085       -1.5224952275
 H         -6.1830744418        2.5791331990       -2.4447227472
 H         -6.0299274216        2.9293171378       -0.7285657769
 C         -4.1728144316        2.3988909092       -1.7005189776
 H         -3.7368381813        1.4131213895       -1.8791923684
 H         -3.9630952619        3.0052688899       -2.5845598272
 C         -3.4510326416        3.0521176085       -0.5216540373
 H         -3.7833429920        4.0873122784       -0.4171143064
 H         -2.3800236717        3.0609958291       -0.7392374674
 C         -3.6552241312        2.3360999375        0.8198673122
 H         -2.9374010312        2.7402820572        1.5375406624
 H         -4.6633477912        2.5158797668        1.1928974825
 H         -7.2537292810        0.8129613978       -1.3280368483
 H         -5.7471583008        0.1541342188       -1.9673342191
 H         -6.1409709907        1.0433660565        0.9230305617
 H         -6.3736171402       -0.6134516531        0.3385456204
 O         -4.1244185800       -1.3311459622        0.1926836196
 C         -2.8462398798       -1.8611574519        0.3132200290
 O         -2.7984259894       -3.0837601217        0.0709240580
 O         -1.1134830807        1.1818246280        1.2283749210
 C         -0.3853869798       -1.4956264714        0.8818055188
 C          0.3744122500       -1.5893190502       -0.4199649913
 C         -0.0527004299       -2.4095751596       -1.4586953219
 C          0.6850896700       -2.4975441384       -2.6248735521
 C          1.8674648497       -1.7924650279       -2.7687764217
 C          2.3035097296       -0.9715809685       -1.7357685812
 C          1.5466426497       -0.8648838597       -0.5774327310
 H          1.8809719396       -0.2129467802        0.2149166195
 N          3.4907497293       -0.2366849780       -1.8506219308
 S          4.4778121594       -0.0152440087       -0.5171416708
 O          5.7782373192        0.2820252722       -1.0786966008
 O          4.4173841800       -1.1423706094        0.3834754284
 C          3.8428677790        1.4474749705        0.2726111804
 C          3.5956938193        1.4376869594        1.6307361104
 C          3.1232150990        2.5916093988        2.2352731814
 C          2.9081147784        3.7297498093        1.4741861923
 C          3.1646335482        3.7245066104        0.1114630522
 C          3.6385574685        2.5744515510       -0.4983096487
 H          3.8509208384        2.5332419919       -1.5536222888
 H          2.9941810978        4.6122066708       -0.4762696271
 H          2.5359673082        4.6249942088        1.9468440830
 H          2.9201561291        2.5962501079        3.2942636814
 H          3.7692567497        0.5281147790        2.1846624797
 H          4.0215048392       -0.4076642872       -2.6920576410
 H          2.4489482496       -1.8758306370       -3.6744932319
 H          0.3429294401       -3.1338505779       -3.4273089225
 H         -0.9656129697       -2.9732987500       -1.3420498922
 H          0.1011061400       -0.7173957617        1.4860409794
 C         -0.2804641193       -2.8120423020        1.6290816378
 C          1.0499080210       -3.2132637019        2.1905948673
 C         -0.0599187190       -2.8026088030        3.1103506578
 H         -0.5422739887       -3.5618753336        3.7075705273
 H          0.0119323107       -1.8422268033        3.5997143585
 H          1.3280889013       -4.2555865918        2.1550462665
 H          1.8811843007       -2.5379602215        2.0473607377
 H         -0.9099624091       -3.5914275919        1.2202001074
