  62
        -98.93815182
 C         -2.5349268250       -0.2301455654        0.0181355592
 C         -2.3613893304        0.7949578362        0.9732090754
 C         -2.1251065871        2.1578375456        0.4609042471
 C         -2.1043420188        2.3524476744       -0.8707846969
 C         -1.8702889924        3.6339066410       -1.6270698164
 C         -0.3903713383        4.0425823517       -1.6621390760
 C          0.3353318001        3.9405854538       -0.3234857724
 H          0.3073278239        2.9047075589        0.0221212990
 H          1.3874101107        4.1814319026       -0.4997966201
 C         -0.1781895247        4.8745976071        0.7703527080
 H          0.4944458698        4.7668510785        1.6253327001
 H         -0.1077752499        5.9068134893        0.4193039177
 C         -1.6066537207        4.6249556298        1.2606048039
 H         -1.7281454575        5.1751464998        2.1983449336
 H         -2.3395236510        5.0297394772        0.5677712015
 C         -1.9270818505        3.1657598732        1.5669507291
 H         -1.1412698536        2.7526813883        2.2113976757
 H         -2.8432125375        3.1252402337        2.1689269187
 H         -0.3244683914        5.0649629631       -2.0394888188
 H          0.1257730854        3.3842912730       -2.3650828755
 H         -2.2053221255        3.4552660508       -2.6513570047
 H         -2.4812306539        4.4300335169       -1.2119551189
 O         -2.2850066580        1.3315960756       -1.7575747683
 C         -2.4629717914        0.0236186487       -1.3502324822
 O         -2.5571178211       -0.7996851163       -2.2816267340
 H         -0.1565675599       -0.8585792216        0.3759232535
 C         -0.2498194634       -1.8864962339        0.0580873162
 C         -1.5033384296       -2.4843227424        0.0438244140
 C         -1.5979316075       -3.8125317889       -0.3509113037
 C         -0.4630729757       -4.5106724308       -0.7285743546
 C          0.7799778045       -3.9062533445       -0.7253146424
 C          0.8844848717       -2.5737142572       -0.3371667743
 N          2.1215390063       -1.9108218353       -0.3797232498
 S          2.3477304960       -0.4565891244        0.4346900941
 O          2.0621848057       -0.6154728959        1.8448847144
 O          1.6319247160        0.5855949297       -0.2558428205
 C          4.1020558300       -0.2487361870        0.1947554326
 C          4.5495124151        0.3747907230       -0.9542450328
 C          5.9141179975        0.5077126326       -1.1569069566
 C          6.8038323437        0.0160192955       -0.2133252272
 C          6.3402552098       -0.6051929339        0.9366887361
 C          4.9767851268       -0.7409884453        1.1451834669
 H          4.5702100067       -1.2049058748        2.0294834838
 H          7.0340227975       -0.9829410066        1.6703038336
 H          7.8651857184        0.1205764211       -0.3738180507
 H          6.2774297015        0.9935404884       -2.0480656406
 H          3.8190393756        0.7472063286       -1.6537677992
 H          2.9195647420       -2.5262023756       -0.3140761953
 H          1.6603479267       -4.4511662114       -1.0290316826
 H         -0.5496514865       -5.5429716845       -1.0321126002
 H         -2.5591489315       -4.2998835101       -0.3649164808
 C         -2.6897835244       -1.6627397763        0.4903709900
 H         -2.6682644139       -1.6110631455        1.5905444050
 C         -4.0203839918       -2.2391432177        0.0539193263
 C         -4.7267344654       -3.2492179499        0.9067313095
 C         -5.2562238812       -1.8512624872        0.8074835109
 H         -6.1658762689       -1.6786174208        0.2524405517
 H         -5.1305462898       -1.1937835139        1.6556613976
 H         -5.2783401319       -4.0390887277        0.4196061471
 H         -4.2515394823       -3.5441597945        1.8302558870
 H         -4.0980628355       -2.3296402094       -1.0235477876
 O         -2.3978514751        0.5843075378        2.2185947220
