  62
        -98.94355660
 C         -1.8555535431       -1.0901149808        0.4786418776
 C         -2.7913958971       -1.0255812482       -0.5829635830
 C         -4.0969625670       -0.4414864391       -0.2449096230
 C         -4.3347365530        0.0055070405        1.0008633788
 C         -5.6229083258        0.6018851837        1.4996717712
 C         -5.7786543204        2.0986804050        1.1979019350
 C         -6.0539824862        2.4423886896       -0.2665325198
 H         -6.8960103815        1.8498590594       -0.6256777168
 H         -6.3569852675        3.4908980902       -0.2977921508
 C         -4.8501560466        2.2489575473       -1.1993862488
 H         -4.7505555560        3.1201001295       -1.8509238762
 H         -3.9343318776        2.1892426862       -0.6062804499
 C         -4.9374880199        1.0170856764       -2.1003125606
 H         -5.7728156280        1.1301796554       -2.7949250534
 H         -4.0169102308        0.9561760588       -2.6862479243
 C         -5.1067990184       -0.3071066879       -1.3444839163
 H         -6.1176463338       -0.3861079591       -0.9451341459
 H         -4.9422748849       -1.1260250140       -2.0489095265
 H         -4.8767968740        2.6182734959        1.5301866031
 H         -6.6138669449        2.4666079236        1.7984249184
 H         -6.4668954882        0.0551584583        1.0780852214
 H         -5.6281247950        0.4675105246        2.5835801523
 O         -3.4003657358       -0.0531436613        1.9873192979
 C         -2.1420029261       -0.5748548788        1.7453882013
 O         -1.3735608669       -0.5318517970        2.7288311013
 H          0.9219522716        0.3443852949        1.3653903112
 C          1.0314615489        0.3398617345        0.2882308906
 C          0.3760397288       -0.6364232680       -0.4511589956
 C          0.5056427681       -0.6243822683       -1.8343120413
 C          1.2733180680        0.3453003600       -2.4561455263
 C          1.9352965673        1.3088309012       -1.7161744706
 C          1.8084708618        1.3051432387       -0.3333616028
 N          2.5294219438        2.2530198466        0.4281998970
 S          4.1972109623        2.0931414163        0.2902324503
 O          4.7494639589        2.6511078039        1.5041601835
 O          4.6287440490        2.7030764795       -0.9416130271
 C          4.4514526722        0.3285275413        0.2228453434
 C          4.3169275974       -0.3936466989        1.3919336801
 C          4.4008083293       -1.7754585232        1.3400733910
 C          4.6052975889       -2.4084483598        0.1233952436
 C          4.7416032054       -1.6688196699       -1.0409576498
 C          4.6626899704       -0.2863424532       -0.9945754270
 H          4.7618101706        0.3252089194       -1.8759662590
 H          4.9005016764       -2.1647225375       -1.9846753122
 H          4.6590507602       -3.4851831706        0.0836856783
 H          4.2969846880       -2.3528174238        2.2450550232
 H          4.1585787875        0.1332013938        2.3197248310
 H          2.2698740363        2.2469374606        1.4050055103
 H          2.5547989231        2.0580965890       -2.1823796251
 H          1.3619323389        0.3474864534       -3.5317821206
 H         -0.0145212761       -1.3634951495       -2.4207472767
 C         -0.4565094766       -1.6555637728        0.2875374753
 H         -0.0377614749       -1.7523667272        1.2982618505
 C         -0.4449910374       -3.0197141667       -0.3696478014
 C          0.8341414081       -3.8006181842       -0.3680229655
 C         -0.3147967033       -4.2414002055        0.4868980071
 H         -0.8602161009       -5.1287606374        0.2024499880
 H         -0.2426041054       -4.0992990254        1.5555218472
 H          1.0808458140       -4.3872222162       -1.2391954292
 H          1.6873254548       -3.3502884431        0.1174118357
 H         -1.0835208020       -3.0893224783       -1.2399606169
 O         -2.5711716710       -1.4367194231       -1.7506401513
