  62
        -98.94888638
 C         -0.8324481678       -1.3730937805        0.1686791802
 C         -1.4771462296       -0.3995647412        0.9653213095
 C         -2.3004032409        0.5743945872        0.2410148489
 C         -2.3400493004        0.5428198666       -1.1038927911
 C         -3.0801313416        1.5122158351       -1.9863163818
 C         -4.5581110310        1.1604720527       -2.2035812222
 C         -5.4626791818        1.3919304117       -0.9925930926
 H         -5.3246202535        2.4103694221       -0.6282818629
 H         -6.4934450115        1.3075739599       -1.3423159229
 C         -5.2464132406        0.3967377325        0.1558804679
 H         -4.6982614891       -0.4725675168       -0.2146937516
 H         -6.2140456801        0.0365810311        0.5121679577
 C         -4.5052606619        0.9719822242        1.3625334379
 H         -5.1072757533        1.7605587634        1.8191210074
 H         -4.3809759309        0.1736250946        2.0983493483
 C         -3.1158794127        1.5421813962        1.0445528082
 H         -3.2106597041        2.4927246259        0.5192513278
 H         -2.5935544333        1.7052542775        1.9900637583
 H         -4.6250804592        0.1158488824       -2.5162964918
 H         -4.9222841517        1.7778745517       -3.0280200525
 H         -3.0017240334        2.5183170154       -1.5721198922
 H         -2.5723126612        1.4969255955       -2.9536801516
 O         -1.6756785086       -0.3889576626       -1.8379127505
 C         -0.9216660173       -1.3773113112       -1.2243333699
 O         -0.3991327757       -2.1904730106       -2.0107251894
 H          1.3850587402       -0.1660374268        0.3913081805
 C          1.9843088517       -1.0305089860        0.1434512110
 C          1.4544222537       -2.3017925567        0.3258090913
 C          2.2476326855       -3.4002738456        0.0209774620
 C          3.5223203654       -3.2221375938       -0.4887697776
 C          4.0226138935       -1.9547115931       -0.7224170279
 C          3.2414044516       -0.8487215742       -0.4064202186
 N          3.7085366496        0.4568622665       -0.6189415290
 S          2.6369585779        1.6537020146       -1.0915230998
 O          1.5593252690        1.1419025225       -1.9050307300
 O          3.4804461465        2.6543421557       -1.7146286999
 C          2.0134320662        2.3213036642        0.4354915097
 C          2.9085807155        2.5951168060        1.4508967699
 C          2.4359280441        3.1591091257        2.6245862895
 C          1.0863627736        3.4488472136        2.7577238489
 C          0.2023163444        3.1744507718        1.7263913387
 C          0.6671776858        2.6015490521        0.5533030891
 H          0.0084246764        2.3530410807       -0.2654196210
 H         -0.8468462060        3.3986641502        1.8295054583
 H          0.7183572226        3.8901522034        3.6704244286
 H          3.1194755835        3.3723455971        3.4305082797
 H          3.9501251159        2.3618241676        1.3064931304
 H          4.5868766397        0.5219897477       -1.1127792787
 H          5.0040070934       -1.8179161717       -1.1503504276
 H          4.1271347169       -4.0838455829       -0.7274045270
 H          1.8636371471       -4.3962768262        0.1691631223
 C          0.0419217637       -2.4131016688        0.8442493909
 H          0.0410956229       -2.1479462484        1.9124830608
 C         -0.5531266041       -3.7965208098        0.6829647712
 C         -0.3549297828       -4.8385481291        1.7419654517
 C         -1.6973291737       -4.1975086413        1.5636829010
 H         -2.4981884227       -4.7809455927        1.1347179209
 H         -2.0263100651       -3.4815560515        2.3026519606
 H          0.2239595065       -4.5649600078        2.6109529218
 H         -0.2361294310       -5.8671882890        1.4364183221
 H         -0.5839112632       -4.1146063203       -0.3533789187
 O         -1.3639090801       -0.3412737105        2.2196872696
