  62
        -98.94361426
 C         -1.5657763925       -1.4502117604        0.0399953744
 C         -2.0992790583       -0.5249404116        0.9693971122
 C         -3.1137570089        0.3950850935        0.4439953132
 C         -3.4835632573        0.3146865271       -0.8470254127
 C         -4.5018182379        1.1879210179       -1.5288639797
 C         -3.9380517603        2.5284780799       -2.0211256088
 C         -3.6229434856        3.5480209311       -0.9251172014
 H         -4.4968115840        3.6722635808       -0.2849036302
 H         -3.4444519368        4.5042530391       -1.4210967351
 C         -2.3980583515        3.2018033190       -0.0660863246
 H         -1.7709611236        4.0890446480        0.0468972151
 H         -1.7945083330        2.4491021469       -0.5796868993
 C         -2.7311406394        2.6960668573        1.3377460822
 H         -3.2118315015        3.4926464957        1.9094079429
 H         -1.7957539147        2.4326374582        1.8366384169
 C         -3.6369238470        1.4584420183        1.3614352415
 H         -4.6574277795        1.7288915251        1.0923744574
 H         -3.6365900953        1.0527636647        2.3758747506
 H         -4.6804956638        2.9673319979       -2.6917739500
 H         -3.0369349552        2.3337981077       -2.6080435636
 H         -5.3411602660        1.3688065273       -0.8569865065
 H         -4.8635657732        0.6285708048       -2.3943546219
 O         -2.9615440654       -0.6033403869       -1.7044190285
 C         -1.9746694025       -1.4909990180       -1.2928764549
 O         -1.5542842110       -2.2426250985       -2.1927282011
 O         -1.7387814711       -0.4672181896        2.1742180880
 C         -0.4853588357       -2.4016684244        0.5090919317
 C          0.8231955332       -2.1661366810       -0.2064682517
 C          1.7775573414       -3.1684071984       -0.3434979097
 C          2.9969661665       -2.9093304522       -0.9453337087
 C          3.2945585668       -1.6475790341       -1.4284224641
 C          2.3467085060       -0.6427780860       -1.3039348283
 C          1.1313065853       -0.9008022089       -0.6881001840
 H          0.4068671262       -0.1017803737       -0.5842132187
 N          2.6603108633        0.6594955168       -1.7694327024
 S          3.6237857930        1.5324213410       -0.7087084836
 O          3.7250441148        2.8640799941       -1.2601603932
 O          4.8584889199        0.8153737099       -0.5243976251
 C          2.6879843150        1.5642641411        0.8083686461
 C          2.7243603499        0.4610111535        1.6383776460
 C          1.9038847819        0.4384567192        2.7548011941
 C          1.0700054677        1.5124204278        3.0237211785
 C          1.0549824418        2.6176412227        2.1866660968
 C          1.8613296758        2.6407510683        1.0602720293
 H          1.8725832613        3.4758786802        0.3777993495
 H          0.4130014370        3.4568272880        2.4035535549
 H          0.4219627670        1.4811703200        3.8852078783
 H          1.9079674403       -0.4205396485        3.4061356223
 H          3.3901128863       -0.3532060352        1.4012046855
 H          1.8382503424        1.2089131086       -1.9793960441
 H          4.2436656176       -1.4210867825       -1.8855747748
 H          3.7250225066       -3.7003735217       -1.0399557785
 H          1.5643734319       -4.1578892600        0.0271390389
 H         -0.3294549678       -2.1561907797        1.5715192540
 C         -0.9575205201       -3.8392885461        0.4093458471
 C         -0.5706701731       -4.8455253232        1.4508315580
 C         -1.9767100336       -4.3319950768        1.3916149357
 H         -2.7568179479       -4.9901647415        1.0397424993
 H         -2.3015185769       -3.6403997856        2.1553743944
 H         -0.3851569758       -5.8628268919        1.1402420926
 H          0.0519532901       -4.5109076514        2.2668875941
 H         -1.0516274261       -4.1740963451       -0.6175277592
