  62
        -98.93550653
 C         -2.3938745901       -1.4164624109        0.0022781598
 C         -3.1105142402       -0.7188250112        1.0070211700
 C         -3.9905109304        0.3789286787        0.5717440102
 C         -4.0638600905        0.6811444389       -0.7375392398
 C         -4.8913518608        1.7068577489       -1.4838084296
 C         -5.6217161109        2.8154008886       -0.7310815394
 C         -4.7075835511        3.8543591487       -0.0817043093
 H         -4.2404342312        4.4476299689       -0.8719834292
 H         -5.3246235912        4.5267350985        0.5180934208
 C         -3.5878693410        3.2955915688        0.7931642406
 H         -3.0051864211        4.1402008188        1.1714401207
 H         -2.9103022309        2.6914462590        0.1852238305
 C         -4.0446874208        2.4720081985        1.9956260605
 H         -4.7382320408        3.0592167083        2.6006613506
 H         -3.1606012507        2.2644072786        2.6048240704
 C         -4.7048629605        1.1234444984        1.6626473703
 H         -4.6460848904        0.4908107083        2.5530920602
 H         -5.7570066506        1.2484139183        1.4185892304
 H         -6.2405302411        3.3360053386       -1.4669044293
 H         -6.2980918108        2.3883548084        0.0033579206
 H         -4.2158477309        2.1574558591       -2.2183021096
 H         -5.6282239507        1.1323191788       -2.0560151697
 O         -3.3488978105       -0.0118132908       -1.6701577499
 C         -2.4939054502       -1.0538329307       -1.3393554501
 O         -1.9081690702       -1.5433440105       -2.3242516802
 O         -3.0302556901       -1.0155979513        2.2290359599
 C         -1.4975641999       -2.5517939308        0.4673144196
 C         -0.0935120500       -2.0537307706        0.6965271196
 C          0.5464148201       -2.2336478506        1.9165119296
 C          1.8247625200       -1.7423112704        2.1197363296
 C          2.4890526499       -1.0644224102        1.1133582997
 C          1.8552030698       -0.8740987401       -0.1077716703
 C          0.5761104199       -1.3693414903       -0.3092869703
 H          0.0866067198       -1.2177473103       -1.2607304302
 N          2.5211650796       -0.1809693498       -1.1386636902
 S          3.0124577993        1.3887593402       -0.7830195700
 O          2.1749566793        1.9850118399        0.2331379202
 O          3.0675083892        2.0736892404       -2.0561775999
 C          4.6692343194        1.1759982204       -0.1667512801
 C          4.9981706994        1.6181636303        1.0995548200
 C          6.2958607994        1.4409472305        1.5543183099
 C          7.2356033595        0.8288982008        0.7390699398
 C          6.8893716495        0.3925820009       -0.5313256103
 C          5.5944558195        0.5674582107       -0.9923931002
 H          5.2840008195        0.2475085808       -1.9730238902
 H          7.6227962496       -0.0828510189       -1.1624137504
 H          8.2440115595        0.6910770609        1.0959290597
 H          6.5668993894        1.7797631804        2.5412948100
 H          4.2320295493        2.0833234801        1.6992320201
 H          2.0054161896       -0.1879562798       -2.0081666402
 H          3.4833713798       -0.6774228800        1.2659235397
 H          2.3086911601       -1.8870181805        3.0734308496
 H          0.0275601802       -2.7454298109        2.7137217095
 H         -1.9074794498       -2.8439034710        1.4469563096
 C         -1.5631776297       -3.7752480607       -0.4369766906
 C         -0.4143088397       -4.2646461303       -1.2622494807
 C         -0.8387223995       -5.0300294206       -0.0473832908
 H         -1.3377089193       -5.9782502807       -0.1767987909
 H         -0.1976678794       -4.9802603206        0.8198364592
 H         -0.6390209696       -4.6662829502       -2.2386025307
 H          0.5158996702       -3.7203363402       -1.2220093506
 H         -2.5489793497       -3.8992390408       -0.8738798105
