  62
        -98.93485323
 C         -2.4325894024       -1.1239191275        0.5073197536
 C         -2.6821864125       -0.2626525019       -0.5871952485
 C         -3.0503081001        1.1266244836       -0.2569750501
 C         -3.1513372475        1.5040365506        1.0277425036
 C         -3.5497906317        2.8460738021        1.5892253961
 C         -2.9572045506        4.0988699281        0.9304585083
 C         -1.5285626252        3.9395689030        0.3895754150
 H         -0.9128670030        4.7602599245        0.7631361283
 H         -1.0796977249        3.0111590321        0.7496029474
 C         -1.4594351555        3.9623195701       -1.1389659945
 H         -0.4344877092        4.1982833975       -1.4371696351
 H         -2.1082689197        4.7573644209       -1.5144767708
 C         -1.8249709536        2.6452126971       -1.8201166817
 H         -1.8037033013        2.8057503394       -2.9013176954
 H         -1.0522391411        1.9043822932       -1.5902045779
 C         -3.1910974319        2.0539214549       -1.4294741606
 H         -3.9191074749        2.8389432707       -1.2405030608
 H         -3.5461667153        1.4408704262       -2.2624177954
 H         -2.9727021264        4.8871131330        1.6851222143
 H         -3.6065797931        4.4277918459        0.1201789968
 H         -4.6415446438        2.9133923970        1.5645481959
 H         -3.2523104273        2.8114062092        2.6399456909
 O         -2.9309370290        0.6339300843        2.0535340111
 C         -2.5329126935       -0.6689775102        1.8241605064
 O         -2.3163912517       -1.3275235693        2.8615546866
 H         -0.4657732794       -1.1574791224       -1.4095561671
 C          0.1579412463       -1.6919525596       -0.7080735525
 C         -0.4325080127       -2.5092301317        0.2467124451
 C          0.3913884480       -3.1872472198        1.1362759225
 C          1.7670832912       -3.0364892252        1.0784440731
 C          2.3463500766       -2.1877764138        0.1507389615
 C          1.5287368180       -1.5116908121       -0.7440829985
 N          2.1002040288       -0.5609298932       -1.6349404466
 S          2.2267658961        0.9441902447       -0.8718849577
 O          1.1322625511        1.1656704704        0.0472897780
 O          2.3841866001        1.9168568942       -1.9307847841
 C          3.7538950076        0.7727335726        0.0230733696
 C          3.7257190973        0.5686716973        1.3882393136
 C          4.9237450981        0.3895202041        2.0625263176
 C          6.1204833274        0.4155051934        1.3625465350
 C          6.1313424060        0.6232199835       -0.0089511115
 C          4.9373550068        0.8022603215       -0.6887962952
 H          4.8955936818        0.9701796051       -1.7520538591
 H          7.0641375853        0.6433587712       -0.5490154021
 H          7.0502648365        0.2729403317        1.8902254561
 H          4.9164078060        0.2270403308        3.1283620264
 H          2.7706608004        0.5515401139        1.8895182275
 H          1.5345656772       -0.4360321275       -2.4652564079
 H          3.4138552951       -2.0422227277        0.1162473461
 H          2.3932722521       -3.5690721440        1.7775445882
 H         -0.0554783340       -3.8140227784        1.8941891443
 C         -1.9353720630       -2.5549864026        0.3526225382
 H         -2.1908116586       -3.0558305265        1.2992794161
 C         -2.6144416251       -3.3200209693       -0.7738922318
 C         -1.8881220690       -3.8292163358       -1.9799029282
 C         -2.3532347838       -4.7893621063       -0.9295289103
 H         -3.1830552051       -5.4427819026       -1.1514600890
 H         -1.6031017110       -5.2274695668       -0.2883757454
 H         -0.8295431108       -3.6371646812       -2.0606624373
 H         -2.4081911550       -3.7971203255       -2.9251955918
 H         -3.6340852997       -2.9873367248       -0.9349432967
 O         -2.6098809273       -0.6126455121       -1.7953495871
