  62
        -98.93703283
 C         -1.7580147592       -0.3146426002       -0.2971194598
 C         -2.9585213492       -0.6269238704       -0.9754452198
 C         -4.1940556193       -0.5722491996       -0.1766992800
 C         -4.1217478194       -0.2498795589        1.1263085898
 C         -5.2390448796       -0.1763452081        2.1370848796
 C         -6.5536344794        0.4818911619        1.6960955990
 C         -6.3995495790        1.6285452913        0.6863180484
 H         -6.9501389889        2.4979729216        1.0503519478
 H         -5.3504377189        1.9176812910        0.6050604384
 C         -6.9411262888        1.2785370006       -0.7018291215
 H         -7.1423112486        2.2054318303       -1.2444110121
 H         -7.8930092290        0.7557923408       -0.5849041214
 C         -6.0122196089        0.4361745499       -1.5753142909
 H         -5.1536805387        1.0360835295       -1.8892397511
 H         -6.5587110388        0.1618336695       -2.4809389408
 C         -5.4697162792       -0.8447961398       -0.9207200600
 H         -6.2179075694       -1.3092155893       -0.2829506899
 H         -5.2093930792       -1.5453324503       -1.7190412196
 H         -7.2170187095       -0.2731296882        1.2764866093
 H         -7.0369560295        0.8557575525        2.6003538587
 H         -5.4475263298       -1.1917087078        2.4868029102
 H         -4.8197169796        0.3743186423        2.9824816993
 O         -2.9394471895        0.0362542312        1.7417834699
 C         -1.7346607594        0.0153349706        1.0569617601
 O         -0.7426289194        0.3029016508        1.7519283701
 H          2.2034853108       -0.0567414210       -0.3548874593
 C          1.8120371706       -1.0336330708       -0.1283269487
 C          0.4953205506       -1.3437472507       -0.4269688588
 C          0.0288196803       -2.6232403004       -0.1336638281
 C          0.8546791500       -3.5575319303        0.4588262626
 C          2.1676124000       -3.2410328003        0.7623088126
 C          2.6466924103       -1.9717322106        0.4652832419
 N          3.9621221804       -1.6123650007        0.7858259419
 S          4.8390301007       -0.5866995214       -0.1966990485
 O          4.5534441909       -0.8107146022       -1.5947842484
 O          6.2146169506       -0.7911281915        0.2058888218
 C          4.3363143010        1.0541835490        0.2770783604
 C          4.0656809108        1.3224689098        1.6039342602
 C          3.7040344910        2.6105237301        1.9647430994
 C          3.6268452713        3.6043569895        1.0009997688
 C          3.9095301715        3.3206276087       -0.3260666609
 C          4.2687681013        2.0336145584       -0.6940964501
 H          4.4864718314        1.7651209578       -1.7158646799
 H          3.8489378418        4.0953508883       -1.0740516614
 H          3.3424482815        4.6052179497        1.2854735582
 H          3.4791354209        2.8337534307        2.9952869793
 H          4.1270616805        0.5269717102        2.3276002407
 H          4.5304056002       -2.3484319906        1.1775304225
 H          2.8138834598       -3.9689012302        1.2289354431
 H          0.4763688798       -4.5433650801        0.6844340331
 H         -0.9963650397       -2.8723888804       -0.3721136681
 C         -0.4473941691       -0.3515429109       -1.0609580495
 H         -0.7036572890       -0.7194448314       -2.0660501793
 C          0.1282858312        1.0434501189       -1.1851157302
 C          1.0114857515        1.3973428481       -2.3428012103
 C         -0.3818614784        1.9434133184       -2.2689810208
 H         -0.5140368783        2.9920297085       -2.0492319415
 H         -1.1273473484        1.5395782381       -2.9385200807
 H          1.2217599114        0.6243334976       -3.0666903398
 H          1.8360606216        2.0720993580       -2.1704372306
 H          0.3440462611        1.4920423894       -0.2214478205
 O         -2.9965160590       -0.9531427711       -2.1926362896
