  62
        -98.93464725
 C         -2.1672418567       -0.7950593265        0.1272071225
 C         -3.0306499877       -0.1845354289        1.0688455961
 C         -3.9045345626        0.8935104734        0.5741275732
 C         -3.8090647327        1.2798393593       -0.7115762034
 C         -4.5372112752        2.3599390063       -1.4840578142
 C         -5.8080914486        2.9966911286       -0.9271961291
 C         -7.0091848920        2.0560606995       -0.8348841714
 H         -7.8229303782        2.5900651346       -0.3394256821
 H         -7.3390711537        1.8130640013       -1.8480559514
 C         -6.7625004507        0.7389050007       -0.1033257423
 H         -7.6972538871        0.1717164701       -0.1115135150
 H         -6.0246941831        0.1483062265       -0.6505320439
 C         -6.3132938357        0.8719207422        1.3507051824
 H         -6.3329839706       -0.1275100977        1.7940640193
 H         -7.0228142206        1.4940182949        1.8996162426
 C         -4.8984956751        1.4410170593        1.5572712312
 H         -4.5513647308        1.1335446150        2.5482181616
 H         -4.9015638770        2.5282679973        1.5364036993
 H         -6.0756000088        3.8055269500       -1.6126483936
 H         -5.6091244798        3.4554527959        0.0369171278
 H         -3.7997984276        3.1519697215       -1.6554097880
 H         -4.7551565934        1.9261005555       -2.4651206551
 O         -2.9039258363        0.7157277324       -1.5626545712
 C         -2.0720952551       -0.3290778346       -1.1836765650
 O         -1.3185728447       -0.7247139708       -2.0905901407
 O         -3.0661923602       -0.5204725795        2.2837512513
 C         -1.2872651552       -1.9334071587        0.6089649227
 C          0.1381602933       -1.7267652797        0.1611717404
 C          0.8505718280       -2.6445620043       -0.5980763559
 C          2.1627596784       -2.3881292817       -0.9567792022
 C          2.7906343962       -1.2189870736       -0.5708470085
 C          2.0883960129       -0.2935413148        0.1905946651
 C          0.7780420338       -0.5573643187        0.5558431790
 H          0.2307399908        0.1651147377        1.1506284063
 N          2.7157522930        0.9060065904        0.5751777133
 S          4.1892412377        0.7968877887        1.3749946101
 O          4.2988325083       -0.4415759495        2.1107828560
 O          4.2909737732        2.0152183669        2.1489859372
 C          5.3959990915        0.8397198085        0.0670426089
 C          5.3969052048        1.9293510363       -0.7815359785
 C          6.3354559503        1.9836625688       -1.7994849276
 C          7.2535439602        0.9547258454       -1.9489609940
 C          7.2416600991       -0.1307318537       -1.0864732671
 C          6.3048216090       -0.1916009171       -0.0664506487
 H          6.2545217090       -1.0173260062        0.6252471288
 H          7.9565068155       -0.9291644418       -1.2042675363
 H          7.9829239841        0.9997121150       -2.7422432832
 H          6.3477290601        2.8264181288       -2.4717874156
 H          4.6692908627        2.7089250930       -0.6285109021
 H          2.1012121380        1.5461990928        1.0570325799
 H          3.8095630108       -1.0134494482       -0.8555800686
 H          2.7022771090       -3.1083058791       -1.5527653391
 H          0.3736159882       -3.5528817855       -0.9270296881
 H         -1.3055694911       -1.8435761142        1.7088928708
 C         -1.8295141381       -3.3173115637        0.2834119118
 C         -3.2992221533       -3.5472855236        0.1004652963
 C         -2.3709022486       -3.6691790606       -1.0686173931
 H         -2.1696018784       -4.6557224956       -1.4599069211
 H         -2.3799113967       -2.8948931446       -1.8194259795
 H         -3.7324760250       -4.4462108209        0.5127435659
 H         -3.9512261216       -2.6870981994        0.1494443689
 H         -1.2861110494       -4.0969344046        0.8086895895
