  62
        -98.94110695
 C         -0.7739184598       -1.2100544224       -0.0013666699
 C         -1.4861137893       -0.5175128810        1.0046467328
 C         -2.4447805287        0.5008133405        0.5434991529
 C         -2.5688049426        0.7406634969       -0.7731715334
 C         -3.5151336831        1.6861853130       -1.4711251896
 C         -4.9585856154        1.7524393063       -0.9516555451
 C         -5.5144029410        0.4352162007       -0.3912144872
 H         -6.4748928742        0.2246856624       -0.8651951361
 H         -4.8434463879       -0.3903422305       -0.6342655578
 C         -5.7386336246        0.4803083147        1.1223174581
 H         -6.4543826845       -0.2985832769        1.3961881099
 H         -6.1883015533        1.4413812151        1.3815814459
 C         -4.4894087430        0.2663303686        1.9766237313
 H         -4.7571880137        0.4538343427        3.0194561351
 H         -4.1697541342       -0.7772303896        1.9123268663
 C         -3.2805949816        1.1436870765        1.6125781252
 H         -3.5937689684        2.1465569336        1.3323208582
 H         -2.6394927928        1.2129586013        2.4961623095
 H         -5.5787129117        2.0814979778       -1.7871951615
 H         -5.0348121005        2.5216712254       -0.1843881774
 H         -3.0886470614        2.6918859493       -1.4484711592
 H         -3.5178615901        1.3607080792       -2.5139166676
 O         -1.7878494840        0.1184041896       -1.7000694179
 C         -0.8836623201       -0.8707076411       -1.3487573648
 O         -0.2604229578       -1.3598360047       -2.3083921825
 H          1.6680999159       -0.3463199890        1.1133816826
 C          2.1845747981       -0.9998019267        0.4244809873
 C          1.5374857852       -2.1321691320       -0.0566017030
 C          2.2252843269       -2.9786614734       -0.9159064668
 C          3.5233588314       -2.6852278868       -1.2952296143
 C          4.1590883985       -1.5502125329       -0.8287165118
 C          3.4829628203       -0.7027055006        0.0431235214
 N          4.1116982148        0.4439292411        0.5450727765
 S          3.2462013419        1.7518728132        1.0903332966
 O          4.1962703172        2.8444794208        1.0499434688
 O          2.6783513557        1.4740532126        2.3860770938
 C          1.9469662288        2.0710392958       -0.0903253487
 C          0.7601791596        2.5895685404        0.3850598137
 C         -0.2315210052        2.9381765326       -0.5162978045
 C         -0.0265816719        2.7480896227       -1.8737399523
 C          1.1646261439        2.2118679592       -2.3352214951
 C          2.1673955869        1.8789930233       -1.4392698634
 H          3.1035030661        1.4692201950       -1.7817408556
 H          1.3144803089        2.0504983148       -3.3904989759
 H         -0.7994423262        3.0120220697       -2.5781637256
 H         -1.1563000060        3.3541714360       -0.1500749442
 H          0.6321770078        2.7032192093        1.4500736006
 H          4.9849712281        0.6988396013        0.1096786445
 H          5.1698686043       -1.3197252272       -1.1281291069
 H          4.0453714881       -3.3477159191       -1.9686493341
 H          1.7442423523       -3.8637835589       -1.2967273617
 C          0.1201840644       -2.3716179126        0.3947247200
 H          0.1133487486       -2.3824033272        1.4948064419
 C         -0.4721837422       -3.6717434795       -0.1098239875
 C         -0.1421708678       -4.9637954868        0.5738426384
 C         -1.5090777312       -4.3670314701        0.7182879903
 H         -2.3375422124       -4.8432149539        0.2154170808
 H         -1.7744471982       -3.9151667957        1.6631469075
 H          0.5213284270       -4.9220853598        1.4243263665
 H         -0.0334726522       -5.8536886545       -0.0273318450
 H         -0.6075949346       -3.6805428058       -1.1856925321
 O         -1.3433312972       -0.7507865948        2.2355367037
