  62
        -98.94486846
 C         -1.8691272763       -1.0641463311       -0.2100883479
 C         -3.0214377736       -1.1657836448        0.6154130639
 C         -4.2491495870       -0.5394814812        0.1113821262
 C         -4.2275589689        0.0725290539       -1.0862405602
 C         -5.3880673660        0.7967543120       -1.7028574190
 C         -5.3848438591        2.2825751347       -1.3169055930
 C         -5.2122329421        2.5318716600        0.1815451156
 H         -4.2147150168        2.2055207712        0.4854713370
 H         -5.2569911367        3.6118401051        0.3385321004
 C         -6.2616552685        1.8427853120        1.0650283819
 H         -6.6108420089        2.5563405059        1.8143084091
 H         -7.1248141916        1.5586451151        0.4619487982
 C         -5.7468950314        0.6174031460        1.8226153353
 H         -4.8269693797        0.8750731839        2.3536998913
 H         -6.4927595316        0.3444628787        2.5738617392
 C         -5.4788154409       -0.6293159963        0.9702930920
 H         -5.3075029263       -1.4672336054        1.6522812893
 H         -6.3573579277       -0.8549621529        0.3623757273
 H         -4.5634319841        2.7755991265       -1.8422085572
 H         -6.3211643207        2.7292758172       -1.6563385945
 H         -5.3094808201        0.7123935906       -2.7881086618
 H         -6.3152302669        0.3284604062       -1.3780923645
 O         -3.1148224593        0.1375223169       -1.8568815119
 C         -1.9099891586       -0.4126567661       -1.4426588478
 O         -0.9868237223       -0.2458338896       -2.2663557517
 O         -3.0212588829       -1.7637360244        1.7241625602
 C         -0.6009823317       -1.7134403831        0.3191533753
 C          0.3446438311       -0.6978682455        0.9143325029
 C          0.6910511905       -0.7447739268        2.2594075651
 C          1.5859274599        0.1682039647        2.7910834196
 C          2.1536474195        1.1446128072        1.9926789610
 C          1.8072177613        1.2029751902        0.6489908450
 C          0.9160413009        0.2837338490        0.1168291586
 H          0.6497130921        0.3378392100       -0.9282449788
 N          2.3955854763        2.1835174762       -0.1783858316
 S          4.0691763962        2.1112291459       -0.2701084427
 O          4.6342134527        2.7207251422        0.9077012892
 O          4.4215690318        2.7229696282       -1.5316081910
 C          4.4302508900        0.3646457685       -0.2852785554
 C          4.1053160523       -0.3545037496       -1.4182162025
 C          4.3014554855       -1.7255059449       -1.4206126317
 C          4.8085085507       -2.3515397932       -0.2922022948
 C          5.1300254417       -1.6151417737        0.8370714642
 C          4.9376194026       -0.2430007703        0.8449012266
 H          5.1733089839        0.3671793846        1.7011369522
 H          5.5244589548       -2.1056059199        1.7122022906
 H          4.9544997675       -3.4202929204       -0.2939931916
 H          4.0526759923       -2.2984833514       -2.2997172125
 H          3.7141268774        0.1652249753       -2.2786156375
 H          2.0012245395        2.1914551585       -1.1088417396
 H          2.8588959788        1.8600534860        2.3839721378
 H          1.8449123261        0.1184684899        3.8375695312
 H          0.2455456814       -1.4985734438        2.8918818524
 H         -0.9385775854       -2.3706941921        1.1314793943
 C          0.1205633116       -2.5587794350       -0.7135339300
 C          1.0743037660       -3.6153718752       -0.2465800591
 C         -0.2372339931       -4.0060940033       -0.8577456204
 H         -0.2412140479       -4.4386818264       -1.8469746505
 H         -1.0077245488       -4.3972286254       -0.2092891783
 H          1.9763503120       -3.7792211343       -0.8146764184
 H          1.1952100762       -3.7431813748        0.8181491940
 H          0.3699235952       -2.0163206670       -1.6158642386
