  62
        -98.93830266
 C         -2.5604844574       -1.3732900521        0.1547835295
 C         -2.5361893236       -0.2894362711       -0.7516931454
 C         -3.6094707650        0.7176804212       -0.6142242216
 C         -4.5467036057        0.5445972250        0.3360059913
 C         -5.7074818647        1.4403737306        0.6779349142
 C         -5.2810899472        2.6852412827        1.4726532865
 C         -4.0217678748        3.3766787622        0.9566264846
 H         -3.7631561286        4.1685786967        1.6646276382
 H         -3.1942293868        2.6643065343        0.9545745579
 C         -4.1479541968        4.0114914362       -0.4262772157
 H         -4.9467311358        4.7563518127       -0.4068629853
 H         -3.2098866613        4.5351603385       -0.6286202023
 C         -4.4116056427        3.0475312660       -1.5848725989
 H         -5.4512277853        2.7319198882       -1.6040009770
 H         -4.2379164965        3.6005163063       -2.5127910258
 C         -3.4903986201        1.8320632236       -1.6260074751
 H         -3.5914203117        1.3519919287       -2.6071403714
 H         -2.4482701693        2.1703889326       -1.5787613024
 H         -5.0918610127        2.3786747188        2.5041711862
 H         -6.1114849578        3.3931497246        1.4775675681
 H         -6.2412770375        1.7203233360       -0.2252593658
 H         -6.3865063070        0.8494212333        1.2964579191
 O         -4.5302843385       -0.5209911024        1.1870879068
 C         -3.5470883071       -1.4864815539        1.1354849553
 O         -3.6572388905       -2.3843455595        1.9943393368
 H          0.6063586083       -1.7054185812       -1.5038591837
 C          0.7822644744       -1.4790588074       -0.4644530994
 C         -0.1695921599       -1.8109869417        0.4851106429
 C          0.0717223339       -1.4789197029        1.8159231714
 C          1.2386248502       -0.8363249631        2.1822334327
 C          2.1866417662       -0.5028688195        1.2294963809
 C          1.9474013835       -0.8143772487       -0.1012553674
 N          2.8990737950       -0.4773702093       -1.0775224633
 S          3.6025997519        1.0444406156       -1.0320718857
 O          2.7280157053        2.0304018224       -0.4406766830
 O          4.0355200259        1.2989935117       -2.3891425186
 C          5.0414380502        0.8096149578       -0.0073032275
 C          5.2991904663        1.6875196506        1.0271780915
 C          6.4345755522        1.4991093194        1.8001291887
 C          7.2884330049        0.4420176893        1.5256734670
 C          7.0166039594       -0.4298490525        0.4817826412
 C          5.8843914582       -0.2459820431       -0.2955740023
 H          5.6393947966       -0.8996746947       -1.1157871194
 H          7.6826629088       -1.2511550408        0.2717443815
 H          8.1706853965        0.2968390787        2.1289147229
 H          6.6471970971        2.1765142226        2.6115811887
 H          4.6033697039        2.4914988270        1.2080316006
 H          2.6128694157       -0.7112809436       -2.0174365644
 H          3.0930440501        0.0105378135        1.5061393847
 H          1.4129498299       -0.5883370111        3.2183094617
 H         -0.6781466091       -1.7225450513        2.5564049955
 C         -1.4876680030       -2.4501681086        0.1228442977
 H         -1.7524643766       -3.1598577046        0.9181047806
 C         -1.4780588521       -3.1844745227       -1.2011507227
 C         -0.7749798394       -4.5035160327       -1.3061073474
 C         -2.2720058466       -4.4469569883       -1.3403470389
 H         -2.7753218874       -4.6373922183       -2.2764614580
 H         -2.8187637771       -4.7901173449       -0.4741778001
 H         -0.2491918832       -4.7379177720       -2.2191259948
 H         -0.3028672460       -4.8870113287       -0.4143964186
 H         -1.4515403443       -2.5219504587       -2.0577520453
 O         -1.6630181982       -0.1516551834       -1.6501839190
