  62
        -98.93524845
 C          1.9758597845        1.2395467423        0.1031340449
 C          2.7727517187        0.7383769843        1.1612364527
 C          3.9755537986       -0.0246868733        0.7846042266
 C          4.2284952951       -0.2372009062       -0.5181899077
 C          5.3610918001       -1.0254930481       -1.1157651329
 C          4.9361406400       -2.4815393287       -1.3710524022
 C          5.1250644835       -3.4261277523       -0.1845393202
 H          4.6676045530       -4.3811064221       -0.4536342758
 H          6.1918651402       -3.6050502398       -0.0347990973
 C          4.5199538270       -2.9460315841        1.1373063829
 H          3.5296888862       -2.5236414970        0.9558763730
 H          4.3853530883       -3.8183913593        1.7799569410
 C          5.4007662655       -1.9213798680        1.8679194580
 H          5.5485448375       -2.2434197415        2.9008511532
 H          6.3873426201       -1.9062902643        1.4052369341
 C          4.8353406754       -0.4947799718        1.9261919238
 H          5.6628820962        0.2112806875        2.0535747050
 H          4.1993435628       -0.3919535466        2.8112297384
 H          3.8858225087       -2.4758840235       -1.6746167798
 H          5.5148790512       -2.8736460848       -2.2098124253
 H          6.2416381489       -0.9777773846       -0.4819467869
 H          5.5921070341       -0.5583719397       -2.0754518186
 O          3.4083605092        0.2163824404       -1.5043039632
 C          2.2648512585        0.9535445795       -1.2321274108
 O          1.6193579144        1.2740018929       -2.2459866541
 O          2.4840869936        0.9116783859        2.3764702762
 C          0.7359250327        2.0347603385        0.4714277248
 C         -0.4589706821        1.5103645266       -0.2844785584
 C         -1.2236073892        2.2783199727       -1.1515026784
 C         -2.2967949578        1.7174897779       -1.8227233278
 C         -2.6349624745        0.3899696518       -1.6404009417
 C         -1.8842215539       -0.3845551271       -0.7641890582
 C         -0.8142934299        0.1806394513       -0.0883690695
 H         -0.2249632528       -0.4263615278        0.5885203446
 N         -2.2243268484       -1.7321971694       -0.5629250259
 S         -3.8399681000       -2.1322618096       -0.4029162145
 O         -3.8505978746       -3.3403636601        0.3923156610
 O         -4.4496171208       -2.2327489417       -1.7055128534
 C         -4.5735432044       -0.7814613734        0.5033863294
 C         -5.5909382739       -0.0421254114       -0.0643642789
 C         -6.1272019433        1.0185463309        0.6482519935
 C         -5.6362802223        1.3220640227        1.9083731426
 C         -4.6158806624        0.5673917140        2.4670341369
 C         -4.0776521784       -0.4952656059        1.7600173481
 H         -3.2873243489       -1.1041308012        2.1692950035
 H         -4.2353140626        0.8041639115        3.4476987249
 H         -6.0508059611        2.1506258521        2.4605182915
 H         -6.9221163648        1.6054568798        0.2172548819
 H         -5.9406272441       -0.3111285494       -1.0477757526
 H         -1.6537088828       -2.2075077450        0.1197281405
 H         -3.4528189985       -0.0648903417       -2.1752311495
 H         -2.8737435522        2.3220944852       -2.5056010167
 H         -0.9626976362        3.3088242538       -1.3256449047
 H          0.5817389946        1.8119414141        1.5407056209
 C          0.9041128515        3.5430174894        0.3691052716
 C          2.2485813985        4.1828127886        0.5400936279
 C          1.5737909974        4.2036086254       -0.7970570701
 H          1.1735749824        5.1420259761       -1.1524027512
 H          1.9571289710        3.5690380990       -1.5803124724
 H          2.3116603976        5.1030302113        1.1012812261
 H          3.1005271054        3.5315909351        0.6727224718
 H          0.0644005040        4.0718396968        0.8093405305
