  62
        -98.94058544
 C         -2.2791262396       -0.9866449647       -0.2794602118
 C         -3.6082157238       -1.1680194670        0.1749308669
 C         -4.6022898995       -0.2208767002       -0.3456009788
 C         -4.2115936090        0.7297797613       -1.2139767099
 C         -5.1046924684        1.7977734841       -1.7745243500
 C         -5.0725369616        3.0594082188       -0.9004273667
 C         -5.2787543546        2.7835443374        0.5890674502
 H         -4.4278996394        2.2107785662        0.9656271155
 H         -5.2682924531        3.7475226799        1.1023693426
 C         -6.5797406652        2.0400176895        0.9227496388
 H         -7.0488846521        2.5248094814        1.7814340952
 H         -7.2753109981        2.1180440222        0.0865359068
 C         -6.3931939308        0.5668474852        1.2907451276
 H         -7.3320070068        0.2010585381        1.7147838646
 H         -5.6274947704        0.4773953681        2.0654221068
 C         -6.0190723213       -0.3687876299        0.1340160291
 H         -6.1064765610       -1.3970037618        0.4967352231
 H         -6.7213645299       -0.2340947639       -0.6908053897
 H         -4.1010041433        3.5429260739       -1.0275735372
 H         -5.8432780122        3.7456034868       -1.2560125964
 H         -4.7512865122        2.0508250701       -2.7754685376
 H         -6.1212093355        1.4156946193       -1.8435492687
 O         -2.9305601719        0.8593974850       -1.6452926234
 C         -1.9276245316        0.0224962476       -1.1758509441
 O         -0.7967119389        0.2764851750       -1.6334691878
 H          1.4995554860       -1.3643527874       -0.1570600334
 C          1.0970338080       -0.8941821962        0.7234010971
 C         -0.2307936495       -1.0735620993        1.0759601582
 C         -0.7132085396       -0.4395996365        2.2194163933
 C          0.1095770097        0.3658017323        2.9808105975
 C          1.4293691735        0.5613508141        2.6124701363
 C          1.9242054978       -0.0734978763        1.4798391622
 N          3.2783130608        0.0777922071        1.1229894292
 S          3.7004106566        0.3195289337       -0.4956194289
 O          3.0520700137        1.5038308979       -1.0135400502
 O          3.5052279945       -0.9062884684       -1.2256578173
 C          5.4480956482        0.6233195648       -0.2992053707
 C          5.9285260242        1.9170735937       -0.3668819441
 C          7.2849781419        2.1396683070       -0.1876756135
 C          8.1328811877        1.0704382773        0.0580262615
 C          7.6361312890       -0.2231353674        0.1225031940
 C          6.2814115692       -0.4523553253       -0.0572684195
 H          5.8513528753       -1.4396262914       -0.0243722904
 H          8.2989925970       -1.0521204647        0.3111270283
 H          9.1878768516        1.2460879720        0.1973300547
 H          7.6737648880        3.1438588847       -0.2407207624
 H          5.2320311269        2.7153765201       -0.5677910302
 H          3.7350344191        0.7816994477        1.6895832611
 H          2.0719680156        1.1999396746        3.1999203891
 H         -0.2786433671        0.8529468315        3.8627168559
 H         -1.7488182106       -0.5850616761        2.4957993051
 C         -1.1939015399       -1.9020511982        0.2619386076
 H         -1.7110250163       -2.5937363587        0.9430858328
 C         -0.5407463137       -2.7045199307       -0.8411888084
 C          0.1657612137       -3.9836748645       -0.5092221366
 C         -1.1404631653       -4.0174662357       -1.2426977628
 H         -1.1400732406       -4.2845308134       -2.2888234383
 H         -2.0193630945       -4.3465277962       -0.7076561146
 H          1.0684248511       -4.2252358368       -1.0496986414
 H          0.1743156639       -4.2931641955        0.5249647173
 H         -0.1263740169       -2.0845452302       -1.6286773486
 O         -3.9449819603       -2.0747553221        0.9828859124
