  62
        -98.94007924
 C          0.6485401529        1.7042191138       -0.5025389974
 C          1.7821025619        1.9527116957        0.3133880718
 C          2.9567294305        1.0904262038        0.1139962638
 C          2.9109307750        0.1230521457       -0.8205642766
 C          3.9773962299       -0.8401010990       -1.2966370292
 C          5.1867843060       -1.1617259892       -0.4207407884
 C          4.8658619198       -1.8543580839        0.9023875249
 H          4.4902429829       -2.8585123459        0.6924560157
 H          5.7984712077       -1.9606583324        1.4612021390
 C          3.8383678126       -1.1479206993        1.7833775372
 H          2.8643341705       -1.1535422078        1.2902100455
 H          3.7375922847       -1.7251119365        2.7063724781
 C          4.1880054606        0.2879372459        2.1726527505
 H          5.1865242599        0.3185376077        2.6130037564
 H          3.4747115832        0.6016563981        2.9394121715
 C          4.1209562519        1.3214126116        1.0326179598
 H          5.0512983238        1.3547769081        0.4701201203
 H          3.9717401729        2.3089686164        1.4783816379
 H          5.7708144309       -0.2638778667       -0.2403882736
 H          5.8193183505       -1.8373024205       -1.0033018454
 H          3.4498100996       -1.7663160174       -1.5386744631
 H          4.3430931260       -0.4349480943       -2.2470298275
 O          1.7998483321       -0.0823815447       -1.5818561372
 C          0.6459718047        0.6739531235       -1.4415152280
 O         -0.2696206420        0.3164723205       -2.2086783002
 O          1.8171576369        2.8790714359        1.1678166969
 C         -0.5496365740        2.6101725934       -0.2836865136
 C         -1.5347427035        2.0112057455        0.6922953288
 C         -1.9896161239        2.7448870211        1.7814943485
 C         -2.9079249717        2.1995902453        2.6608884987
 C         -3.3831655042        0.9150399371        2.4730866754
 C         -2.9265653580        0.1682798922        1.3909318870
 C         -2.0112321175        0.7209859712        0.5067944462
 H         -1.6799905407        0.1475497013       -0.3439938590
 N         -3.3495272171       -1.1513244721        1.2195238586
 S         -3.1583201548       -2.0197359701       -0.1863925504
 O         -3.5794661608       -1.2736786266       -1.3481230495
 O         -3.9001508271       -3.2394623616        0.0667117435
 C         -1.4270183471       -2.4249156971       -0.2508129968
 C         -0.8237562789       -2.5876473021       -1.4806689935
 C          0.5005180721       -2.9937117094       -1.5287933924
 C          1.1921185090       -3.2309338886       -0.3521801902
 C          0.5744555593       -3.0543894137        0.8762602679
 C         -0.7494854803       -2.6515924998        0.9308738232
 H         -1.2585601643       -2.5071670859        1.8695287904
 H          1.1202557101       -3.2313223620        1.7894367661
 H          2.2204671236       -3.5554377564       -0.3898737440
 H          0.9841963514       -3.1143903397       -2.4851158314
 H         -1.3896647291       -2.3750292657       -2.3733860982
 H         -4.1016712556       -1.4738241790        1.8074689202
 H         -4.0974492195        0.4864707650        3.1589888217
 H         -3.2568662395        2.7793722589        3.5017516288
 H         -1.6112085942        3.7434482503        1.9417206993
 H         -0.1414947691        3.5223188672        0.1739216222
 C         -1.2705497141        2.9977292397       -1.5602408714
 C         -2.0263739706        4.2903828485       -1.6077862287
 C         -0.7518304351        4.1377884227       -2.3816815561
 H         -0.8021914969        4.0606782052       -3.4573233084
 H          0.1274170607        4.6522673015       -2.0217028457
 H         -2.9583944864        4.3198579255       -2.1511106925
 H         -2.0108626601        4.9145716238       -0.7272379185
 H         -1.6886045690        2.1508974947       -2.0899062954
