  62
        -98.94642131
 C         -1.4992561400       -1.1188905695       -0.0114880191
 C         -2.5040585600       -0.7732238700        0.9292992411
 C         -3.2148742803        0.4854574599        0.6825676514
 C         -2.8715324307        1.2490139702       -0.3701715885
 C         -3.4741824610        2.5784919701       -0.7355740782
 C         -4.7745783211        2.4743303799       -1.5443341581
 C         -5.9981080609        2.0096110995       -0.7535890280
 H         -6.1059492909        2.6231336393        0.1414006321
 H         -6.8729109410        2.1929621194       -1.3806640778
 C         -5.9735361005        0.5251072794       -0.3632771982
 H         -6.9449444104        0.0752809692       -0.5806396282
 H         -5.2350431204       -0.0000454903       -0.9734728184
 C         -5.6728088502        0.2625164292        1.1124249117
 H         -5.6416078399       -0.8187940608        1.2685386115
 H         -6.4786714402        0.6678782089        1.7282457619
 C         -4.3424508803        0.8511451895        1.5995449816
 H         -4.4225758106        1.9339676195        1.6917305218
 H         -4.1207644001        0.4305652594        2.5832933715
 H         -4.9863052014        3.4666642899       -1.9492694079
 H         -4.6090716511        1.8004698301       -2.3882014482
 H         -3.6532839811        3.1606873399        0.1687231819
 H         -2.7345925513        3.1015469304       -1.3459209482
 O         -1.8866700507        0.8952046406       -1.2364259987
 C         -1.1868872504       -0.2958478193       -1.0931503190
 O         -0.3346245705       -0.4814670589       -1.9833142191
 O         -2.7888515797       -1.4827988902        1.9292651710
 C         -0.7165885297       -2.4003052094        0.2318845306
 C          0.6701569703       -1.9983301391        0.6675828905
 C          0.9216607604       -1.7312762793        2.0104057305
 C          2.1546217003       -1.2563206690        2.4182614804
 C          3.1533158101       -1.0091836987        1.4922394903
 C          2.9043607300       -1.2584761385        0.1493272603
 C          1.6822757101       -1.7771975887       -0.2538789696
 H          1.5033660200       -1.9566373786       -1.3018438496
 N          3.8862720098       -0.9351332881       -0.8070916598
 S          4.5331883994        0.6057892720       -0.6790776896
 O          4.8528667892        1.0085739423       -2.0311180996
 O          5.6470887796        0.5762060722        0.2376872302
 C          3.2400952493        1.6368076816       -0.0011424593
 C          3.4931968893        2.3680566115        1.1421293508
 C          2.4868533591        3.1587825712        1.6724482911
 C          1.2467672090        3.2033958210        1.0545725612
 C          1.0103171091        2.4672117411       -0.0956191788
 C          2.0127634692        1.6757266414       -0.6324309891
 H          1.8304110492        1.0878745715       -1.5185901492
 H          0.0458622890        2.4901059509       -0.5781583987
 H          0.4586023489        3.8120780707        1.4691291114
 H          2.6697286991        3.7327455911        2.5665093011
 H          4.4690794693        2.2975578717        1.5945204707
 H          3.5842789197       -1.1094016780       -1.7554363898
 H          4.1138966101       -0.6169846685        1.7852591302
 H          2.3371884804       -1.0623054692        3.4640330904
 H          0.1299338905       -1.8845850596        2.7298600906
 H         -1.2152735395       -2.8889746497        1.0790544706
 C         -0.7400182696       -3.3398177692       -0.9549196896
 C         -0.2908510592       -4.7576144091       -0.7697975799
 C         -1.7417310093       -4.4534138394       -0.9876989496
 H         -2.1881810794       -4.7166879594       -1.9349873696
 H         -2.4149101592       -4.5462187698       -0.1480928795
 H          0.2611195708       -5.2329921789       -1.5661756200
 H          0.0222167710       -5.0545403092        0.2197232501
 H         -0.5128989799       -2.8566453390       -1.8970033495
