  62
        -98.93342079
 C          2.2598900913        0.8930164963        0.6056464783
 C          3.4039127122        0.9723798760       -0.2230279090
 C          4.4780968086       -0.0048508579        0.0442294625
 C          4.3154193584       -0.9138555381        1.0197642476
 C          5.2528927188       -2.0235173207        1.4087966573
 C          4.8914813517       -3.3256302661        0.6739915578
 C          5.5394015948       -3.4911407506       -0.7001764742
 H          6.6075792638       -3.6786110248       -0.5722554696
 H          5.1028947436       -4.3809777016       -1.1595744551
 C          5.3610808133       -2.3071173676       -1.6539232806
 H          4.3335242697       -1.9424952850       -1.5990568409
 H          5.5210913539       -2.6697792134       -2.6711477143
 C          6.3400518112       -1.1567760273       -1.3764124130
 H          6.8441047067       -0.8796263165       -2.3045643537
 H          7.1163357099       -1.5058371277       -0.6958544272
 C          5.7029715352        0.1250112573       -0.8206427553
 H          6.4604128173        0.6884875424       -0.2657283533
 H          5.3869767821        0.7627408978       -1.6519204504
 H          3.8031810132       -3.3634608746        0.5761915329
 H          5.1923959187       -4.1725720814        1.2940792749
 H          5.1185732242       -2.1806980683        2.4810537543
 H          6.2843834038       -1.7397533044        1.2225862628
 O          3.1894410355       -0.9693018872        1.7849445045
 C          2.1526087036       -0.0756185551        1.6082296184
 O          1.2018409432       -0.2344613703        2.4022717135
 O          3.5493792536        1.8093015241       -1.1531785376
 C          1.0728882531        1.8364451482        0.4886997250
 C          0.1347225999        1.4173497023       -0.6185113951
 C          0.5383578532        1.4015783231       -1.9495873170
 C         -0.3456397054        1.0195712072       -2.9417073309
 C         -1.6423413538        0.6517114756       -2.6296505962
 C         -2.0588372847        0.6731208592       -1.3033161716
 C         -1.1680457212        1.0529668328       -0.3090561099
 H         -1.4946142819        1.0447780904        0.7202131451
 N         -3.3882702459        0.3559213087       -0.9736016357
 S         -3.7305951928       -0.4133919218        0.4885544748
 O         -3.6439972648        0.5527822098        1.5543529845
 O         -2.9265760865       -1.6077443668        0.6258603981
 C         -5.4398537249       -0.8409451721        0.2125681771
 C         -6.3889507445        0.1594679979        0.3096214122
 C         -7.7176955747       -0.1521045842        0.0704567460
 C         -8.0739876195       -1.4514912575       -0.2596985257
 C         -7.1110777698       -2.4450869353       -0.3508403766
 C         -5.7795815157       -2.1397159914       -0.1143983065
 H         -4.9974160344       -2.8800613485       -0.1666727594
 H         -7.3912303338       -3.4548378595       -0.6042743847
 H         -9.1090729171       -1.6917777598       -0.4443392748
 H         -8.4693499043        0.6172386673        0.1430690106
 H         -6.0657697260        1.1516150327        0.5780725183
 H         -3.8795828426       -0.0893335009       -1.7373539884
 H         -2.3300234488        0.3539434917       -3.4067486111
 H         -0.0199459992        1.0045047299       -3.9709310364
 H          1.5522410422        1.6780904573       -2.1939212744
 H          0.5251266712        1.7350744490        1.4363156127
 C          1.4742654001        3.2902767266        0.3247239925
 C          0.4872448852        4.3551548140        0.6919917642
 C          1.6994998856        4.1295015640        1.5441670184
 H          2.4904840298        4.8639969375        1.5245740245
 H          1.5653879148        3.6573497633        2.5071091290
 H          0.4432138575        5.2474009593        0.0867457365
 H         -0.4699273210        4.0360167451        1.0776931223
 H          2.1166605930        3.4667343262       -0.5273253545
