  62
        -98.94713860
 C          1.6289307787        1.5248063079       -0.2426832928
 C          2.8255314446        1.2271150422        0.4580310972
 C          3.6168800496        0.1036316615       -0.0588983570
 C          3.1748944236       -0.5714527551       -1.1355052367
 C          3.8545056758       -1.7675399373       -1.7361150363
 C          3.3418095946       -3.0791559445       -1.1240820918
 C          3.2943056328       -3.0725097985        0.4036563691
 H          2.5575446991       -2.3379170960        0.7369212996
 H          2.9402333996       -4.0553048951        0.7222874380
 C          4.6427486554       -2.7796162732        1.0765043261
 H          4.7852737579       -3.4857440875        1.8972022107
 H          5.4546632364       -2.9417220300        0.3664131648
 C          4.7651880099       -1.3760517814        1.6721932022
 H          5.6562873033       -1.3521840293        2.3052016023
 H          3.9035974582       -1.1726696929        2.3130226675
 C          4.8935250459       -0.2314487476        0.6591047366
 H          5.6894373470       -0.4577225845       -0.0534370983
 H          5.1733368362        0.6708333495        1.2106808573
 H          3.9861084721       -3.8913399061       -1.4657746908
 H          2.3338807518       -3.2686369728       -1.4994160335
 H          3.6533952398       -1.7742232511       -2.8088992195
 H          4.9282819832       -1.6798117439       -1.5810655975
 O          2.0255334632       -0.2556866397       -1.7831915033
 C          1.2212697767        0.7935826673       -1.3580366498
 O          0.2028787812        0.9595489046       -2.0558595864
 O          3.2135202564        1.8743691461        1.4662949010
 C          0.7547423288        2.6501629429        0.2888690686
 C         -0.4947724602        2.0147621880        0.8446697681
 C         -0.4708074854        1.4619273870        2.1224380098
 C         -1.5650365437        0.7778734846        2.6182597814
 C         -2.6974707225        0.6074505717        1.8404680211
 C         -2.7239854319        1.1446287242        0.5606233582
 C         -1.6397864648        1.8645930820        0.0780985347
 H         -1.6745882085        2.2673227416       -0.9213699648
 N         -3.8452938378        0.9176651524       -0.2594549215
 S         -4.3753587970       -0.6695280693       -0.3469123817
 O         -4.9356702803       -0.8183132214       -1.6722774125
 O         -5.2861350419       -0.9259542330        0.7426181412
 C         -2.9247657417       -1.6954049150       -0.1566804992
 C         -2.9233593300       -2.6868763782        0.8040959514
 C         -1.7965366486       -3.4790631840        0.9522098950
 C         -0.6910976391       -3.2646885804        0.1435124032
 C         -0.7095700579       -2.2666108780       -0.8177103480
 C         -1.8350178711       -1.4742436328       -0.9747875326
 H         -1.8471895273       -0.6865786610       -1.7115838762
 H          0.1488082825       -2.0810274796       -1.4443946828
 H          0.1906440801       -3.8748407478        0.2627700484
 H         -1.7807415850       -4.2562291687        1.6992367916
 H         -3.8006135114       -2.8125108086        1.4178789974
 H         -3.7444966814        1.3061173098       -1.1865532838
 H         -3.5543371645        0.0603331417        2.1994002943
 H         -1.5339048937        0.3618509083        3.6136210910
 H          0.4263235854        1.5633446040        2.7169029464
 H          1.3194609888        3.0901812417        1.1212640545
 C          0.4967511979        3.7236482423       -0.7465778870
 C         -0.0666191298        5.0415876314       -0.3085937429
 C          1.3586937806        4.9488990179       -0.7614116393
 H          1.6266589555        5.3779684970       -1.7153574673
 H          2.1378052641        5.0216114044       -0.0168952846
 H         -0.7793128756        5.5379624328       -0.9494309790
 H         -0.2563376782        5.1752566390        0.7456666643
 H          0.1835294390        3.3330185947       -1.7069644066
