  62
        -98.94564475
 C         -1.4427128906       -1.2598795882        0.0749251853
 C         -1.5877920970        0.0542493923       -0.4356822585
 C         -2.7493047054        0.8071580374        0.0600936469
 C         -3.5773591560        0.2588680694        0.9656578605
 C         -4.7836780274        0.9147071657        1.5811538942
 C         -6.0510295784        0.8257265832        0.7197452921
 C         -6.0602778293        1.7194971035       -0.5212000939
 H         -7.0827202039        1.7241901696       -0.9042360601
 H         -5.8162775029        2.7422923716       -0.2320623861
 C         -5.1161498474        1.2598367554       -1.6409130971
 H         -4.8325931084        0.2183916894       -1.4730004857
 H         -5.6406668391        1.2993594987       -2.5982055255
 C         -3.8468140989        2.0998664935       -1.7847452017
 H         -4.1111741341        3.1168893824       -2.0830094885
 H         -3.2346854241        1.6639406889       -2.5780554182
 C         -2.9927252363        2.1709390466       -0.5123685499
 H         -2.0209024636        2.6027245659       -0.7662855916
 H         -3.4706018079        2.8131564559        0.2275847322
 H         -6.1966316949       -0.2148597244        0.4207220110
 H         -6.8946567831        1.1109267903        1.3525624646
 H         -4.9706961059        0.3964233041        2.5243038673
 H         -4.5608671013        1.9598970126        1.7989107877
 O         -3.3922898270       -0.9969466372        1.4530267359
 C         -2.3387802355       -1.7800565032        1.0139833214
 O         -2.3059693516       -2.9187637739        1.5247386877
 H          0.7487448495        0.1183372960        0.6714751088
 C          1.3188827370       -0.7508515653        0.9553094041
 C          0.9047579443       -2.0149183168        0.5643624535
 C          1.6477864193       -3.1171145174        0.9733929335
 C          2.7761309624       -2.9546851393        1.7556772414
 C          3.1922355407       -1.6912992213        2.1349227224
 C          2.4547926154       -0.5822832594        1.7357047976
 N          2.8406071332        0.7066770715        2.1269267682
 S          2.6453556308        2.0099783416        1.0951039570
 O          3.5528296355        3.0073529707        1.6253527569
 O          1.2596554465        2.3963484597        1.0316620713
 C          3.2532550791        1.4346010266       -0.4792780578
 C          2.3898473579        1.1503387682       -1.5162217027
 C          2.9161570846        0.6588153601       -2.7021060585
 C          4.2812070397        0.4597234747       -2.8292157008
 C          5.1355903062        0.7571979217       -1.7777810774
 C          4.6184129745        1.2476178316       -0.5910232851
 H          5.2491320732        1.5047524280        0.2445466277
 H          6.1981937623        0.6064320720       -1.8796603580
 H          4.6810694978        0.0731471129       -3.7534220039
 H          2.2486020795        0.4312300930       -3.5183249088
 H          1.3288125107        1.3017137004       -1.3905106672
 H          3.7185438242        0.7544596210        2.6225056707
 H          4.0715565578       -1.5614603469        2.7469246026
 H          3.3394745223       -3.8189480800        2.0725275985
 H          1.3246641391       -4.1072380150        0.6895469262
 C         -0.3141413135       -2.2005782268       -0.3109071065
 H         -0.6972829490       -3.2148783655       -0.1294594311
 C          0.0953653793       -2.0982732002       -1.7685448463
 C          0.6722164538       -3.2938592076       -2.4618961783
 C         -0.7041882001       -2.8151236000       -2.8126448657
 H         -0.8621576730       -2.3285913734       -3.7632556910
 H         -1.5487048103       -3.4011814676       -2.4791094538
 H          1.4680954162       -3.1389522813       -3.1736452688
 H          0.7567164505       -4.2118358132       -1.9009066919
 H          0.4919980800       -1.1265051105       -2.0282394207
 O         -0.8086616121        0.5960107049       -1.2625707814
