  62
        -98.94504177
 C         -1.0213238684       -1.2978705769        0.4226647075
 C         -1.5389464709       -0.6990498537       -0.7537484697
 C         -2.3682451140        0.5018996841       -0.5497662614
 C         -2.5875455322        0.9597959679        0.6951174760
 C         -3.4496809669        2.1386373674        1.0402337500
 C         -4.9022903921        1.7098061889        1.2913706017
 C         -5.4783867774        0.8056868789        0.2016152235
 H         -4.9420767817       -0.1459295658        0.2059836885
 H         -6.5149411434        0.5920470840        0.4709461763
 C         -5.4315002616        1.4041815487       -1.2112259957
 H         -5.2897029271        2.4840426167       -1.1526861130
 H         -6.3930019027        1.2293763603       -1.6985726188
 C         -4.3570701461        0.8030650316       -2.1197894099
 H         -4.4384062259       -0.2869249869       -2.1145029398
 H         -4.5472918136        1.1398820206       -3.1424655371
 C         -2.9102342410        1.1788152405       -1.7765313901
 H         -2.2708357356        0.8564296980       -2.6043953973
 H         -2.8204645378        2.2642026244       -1.6884109832
 H         -5.5158767543        2.6077768017        1.3831544980
 H         -4.9443236593        1.1700912382        2.2401328652
 H         -3.0557070611        2.6016490451        1.9465633638
 H         -3.4072377090        2.8626641162        0.2285725754
 O         -2.0771281422        0.3596860589        1.7999788310
 C         -1.2861175575       -0.7726849160        1.6905693171
 O         -0.8848658044       -1.2178435977        2.7838769568
 H          0.9690988081       -0.6190707168       -1.2309979730
 C          1.7110532545       -1.1381782123       -0.6458731674
 C          1.3361153792       -2.1373031635        0.2396102286
 C          2.3281549398       -2.7990981359        0.9555427413
 C          3.6603199551       -2.4711574579        0.7845786336
 C          4.0284081819       -1.4598804436       -0.0848379149
 C          3.0451926144       -0.7882100539       -0.8005239671
 N          3.3781527890        0.2623145301       -1.6745166246
 S          2.5112728944        1.6889631111       -1.5403796175
 O          1.2303121552        1.5742114388       -2.1856030716
 O          3.4006299999        2.6981715487       -2.0766887702
 C          2.3141841422        1.9238382228        0.2167815957
 C          1.0768448431        1.7494748900        0.8002731532
 C          0.9592780211        1.8822674322        2.1749725881
 C          2.0774148708        2.1819578325        2.9370666543
 C          3.3137913501        2.3612964304        2.3350801019
 C          3.4366607205        2.2286666317        0.9621154994
 H          4.3778331424        2.3718254878        0.4565743111
 H          4.1791067038        2.5989638532        2.9324054822
 H          1.9796811716        2.2756432313        4.0070424278
 H         -0.0002018361        1.7317481182        2.6445492423
 H          0.2294400654        1.5113581852        0.1751158385
 H          4.3684012177        0.4550590854       -1.7302103651
 H          5.0660076914       -1.1912705387       -0.2106833014
 H          4.4190990066       -2.9963216828        1.3437878031
 H          2.0471443481       -3.5700161722        1.6569190851
 C         -0.1162068095       -2.5173536159        0.4197070842
 H         -0.2172245591       -2.9662771526        1.4179193988
 C         -0.5017506603       -3.5620832969       -0.6111441254
 C         -0.1979346637       -5.0051963807       -0.3495630864
 C         -1.6145944238       -4.5178156303       -0.3080690563
 H         -2.2854744610       -4.7950136101       -1.1071943672
 H         -2.0963828086       -4.4322719254        0.6554078380
 H          0.1092262678       -5.6228669218       -1.1793593942
 H          0.2731346882       -5.2607242117        0.5871539451
 H         -0.4179617075       -3.2049368025       -1.6293583858
 O         -1.3350051658       -1.1213123658       -1.9222005977
