  62
        -98.94502861
 C         -0.8546986201       -1.0828649092        0.7592312381
 C         -1.1536013636       -0.5176248804       -0.5055052196
 C         -2.1090517019        0.5998544188       -0.4858235523
 C         -2.5067570016        1.1226670345        0.6862037722
 C         -3.4747413136        2.2601136242        0.8670703956
 C         -4.9467363679        1.8239952809        0.8427379518
 C         -5.4853653494        1.4229137157       -0.5314926786
 H         -5.2709834425        2.2146459012       -1.2498086310
 H         -6.5710725828        1.3522262915       -0.4399541264
 C         -4.9479757586        0.0853056793       -1.0601142435
 H         -5.7754071151       -0.5090686262       -1.4541161182
 H         -4.5123015052       -0.4841705909       -0.2356730614
 C         -3.9107922144        0.2157044762       -2.1759956721
 H         -4.3764157111        0.6624299638       -3.0570884380
 H         -3.5726810912       -0.7875268181       -2.4479411253
 C         -2.6796858109        1.0498761691       -1.7961538380
 H         -2.9457787990        2.1048788097       -1.7563529478
 H         -1.9124536241        0.9031229079       -2.5593644785
 H         -5.5418429215        2.6627384827        1.2114702687
 H         -5.0766274818        0.9938987960        1.5413504109
 H         -3.2640333593        2.6992298191        1.8447298009
 H         -3.3066878741        3.0156914508        0.0995956267
 O         -2.0408465891        0.6689338301        1.8819495629
 C         -1.2548287987       -0.4704176191        1.9488677815
 O         -0.9687615325       -0.8244462248        3.1114245241
 H          1.9627890238       -0.6408836698        1.0943429379
 C          2.1155742313       -1.3078428989        0.2574861678
 C          1.1724694413       -2.2929604354       -0.0084309790
 C          1.3915953881       -3.1572101013       -1.0728883416
 C          2.5245147464       -3.0249639899       -1.8557558561
 C          3.4550719350       -2.0355369801       -1.5976593587
 C          3.2468588290       -1.1695849577       -0.5294975096
 N          4.1819157272       -0.1696589303       -0.2311454217
 S          3.7654651325        1.2003537603        0.6093221914
 O          4.8440482893        2.1253565300        0.3282496678
 O          3.5598234121        0.8925615356        2.0033147985
 C          2.2637803933        1.8419938162       -0.1091744127
 C          1.2964981802        2.3552712748        0.7302731019
 C          0.1820745303        2.9653332976        0.1789023553
 C          0.0507816695        3.0429764764       -1.1982523771
 C          1.0197634466        2.5041035460       -2.0287731162
 C          2.1422016665        1.9040493618       -1.4824434652
 H          2.9162576362        1.4907578383       -2.1080514854
 H          0.9067432967        2.5540509870       -3.0996473761
 H         -0.8121030418        3.5268028737       -1.6265009303
 H         -0.5753395871        3.3764045419        0.8271361560
 H          1.4313823940        2.2655864589        1.7973415006
 H          4.8997379944       -0.0114023254       -0.9214904164
 H          4.3354268465       -1.9305202655       -2.2128107617
 H          2.6812375849       -3.6971708326       -2.6856162454
 H          0.6631854481       -3.9160813960       -1.3058664276
 C         -0.0357448750       -2.3546447163        0.8908867493
 H          0.3254632088       -2.3576753332        1.9329936731
 C         -0.8559814247       -3.6244312558        0.7083743995
 C         -2.2945164976       -3.6758405372        1.1267780247
 C         -1.9338256318       -3.7433318538       -0.3251388096
 H         -2.0508376318       -4.6871046473       -0.8372831951
 H         -2.1304775873       -2.8828190389       -0.9445977307
 H         -2.7367549382       -2.7654566792        1.5056511161
 H         -2.6562988641       -4.5693893921        1.6129728722
 H         -0.2684164333       -4.5156316222        0.9066573659
 O         -0.6771477221       -0.9203590834       -1.5955610430
