  62
        -98.93717809
 C         -2.3984914416       -1.1946058653       -0.1021631715
 C         -3.1864874676       -0.4688813022       -1.0301969241
 C         -4.5095715578       -0.0395866355       -0.5453556814
 C         -4.8917158032       -0.3423116561        0.7075258964
 C         -6.1843125761        0.0836386740        1.3397998762
 C         -6.0306910784        1.4240526901        2.0721394862
 C         -5.3500755950        2.5095205671        1.2381895005
 H         -5.3249680295        3.4171694035        1.8451251029
 H         -4.3134459300        2.2187124457        1.0527795294
 C         -6.0401987016        2.8084430031       -0.1000197008
 H         -6.0986736302        3.8912564465       -0.2290958462
 H         -7.0625358460        2.4290426317       -0.0824783574
 C         -5.3141058069        2.2523598375       -1.3263034015
 H         -5.7596318002        2.7022019511       -2.2175025382
 H         -4.2641479772        2.5537571273       -1.2977272098
 C         -5.3737871083        0.7299978389       -1.5046538600
 H         -6.4104120439        0.3925638040       -1.4452717343
 H         -4.9925605788        0.4978203906       -2.5033523921
 H         -5.4342907619        1.2598832319        2.9726803884
 H         -7.0213622381        1.7650070048        2.3783989538
 H         -6.9498077399        0.1635879266        0.5704042123
 H         -6.4831982752       -0.6810798801        2.0588072657
 O         -4.1087495039       -1.0421308156        1.5690608091
 C         -2.8507618951       -1.4733091791        1.1904707176
 O         -2.2350696889       -2.0975744927        2.0797254706
 H          1.1803658742       -1.9716676030        1.1240084122
 C          1.1177088993       -0.9903074286        0.6716375712
 C          0.0422199834       -0.6834129627       -0.1487910276
 C         -0.0266613701        0.5895837991       -0.7072475188
 C          0.9642100522        1.5215124710       -0.4567507064
 C          2.0429788182        1.2045450256        0.3516968584
 C          2.1138920971       -0.0582272846        0.9215570562
 N          3.2402656940       -0.3875406118        1.7212873690
 S          4.5485694334       -0.9048616772        0.7879445829
 O          4.1082021847       -1.7666598944       -0.2876391276
 O          5.4920339148       -1.4827730324        1.7188993280
 C          5.1914989750        0.6146088883        0.1279562445
 C          4.9484266962        0.9389622754       -1.1920518024
 C          5.4289682023        2.1426128750       -1.6835685124
 C          6.1388470587        2.9942370069       -0.8506803234
 C          6.3762924467        2.6516841487        0.4724154285
 C          5.8977886722        1.4505286160        0.9707621973
 H          6.0613817075        1.1408646006        1.9896507144
 H          6.9300042761        3.3164839283        1.1156015245
 H          6.5101541152        3.9308607091       -1.2358055767
 H          5.2451161159        2.4111760486       -2.7113927585
 H          4.3897166879        0.2469090777       -1.8015093458
 H          3.0336808766       -1.1087232719        2.4001602464
 H          2.8161727648        1.9271927086        0.5554185487
 H          0.8977285114        2.5043792966       -0.8975320593
 H         -0.8636364615        0.8341802707       -1.3438676566
 C         -1.0106940806       -1.7240942460       -0.4246460194
 H         -0.8497669069       -2.5495752342        0.2876553397
 C         -0.9000566059       -2.3216326082       -1.8211619996
 C         -0.1423066757       -1.6948302940       -2.9483068611
 C          0.4007397374       -2.9172254578       -2.2754689290
 H          0.3830239834       -3.8569845981       -2.8067829853
 H          1.2617297841       -2.7925983916       -1.6332627965
 H         -0.5604433583       -1.7860205044       -3.9390353621
 H          0.3577950454       -0.7560587830       -2.7729317648
 H         -1.8004973943       -2.8627340398       -2.0950428409
 O         -2.8256148246       -0.1833578198       -2.1992357288
