  62
        -98.94448438
 C         -2.6505065235       -1.2887883091        0.1149571245
 C         -2.5697697482       -0.2935495072       -0.8891377349
 C         -3.5316989695        0.8132620121       -0.7737055275
 C         -4.4190999503        0.8189316218        0.2371153478
 C         -5.4144660835        1.9101261941        0.5021126009
 C         -4.8371658244        2.9689047940        1.4519150138
 C         -3.4479885900        3.4670735517        1.0523291279
 H         -3.1565904077        4.2330418552        1.7743019618
 H         -2.7303286533        2.6484971691        1.1484845696
 C         -3.3646128476        4.0463884533       -0.3667522761
 H         -4.3642355286        4.2951027705       -0.7252627865
 H         -2.7910720579        4.9750276038       -0.3323888777
 C         -2.6737299095        3.1368151125       -1.3848183802
 H         -1.7065763515        2.8113016116       -0.9905369756
 H         -2.4748676703        3.7246467343       -2.2853135365
 C         -3.4656826330        1.8951686427       -1.8145808924
 H         -4.4686936701        2.1899960234       -2.1298007330
 H         -2.9504841811        1.4550609405       -2.6735370709
 H         -5.5295189266        3.8117120733        1.4909898705
 H         -4.7697595722        2.5366875710        2.4528293604
 H         -5.7010758093        2.3705362149       -0.4412541419
 H         -6.2977922496        1.4649338011        0.9628521091
 O         -4.4770819105       -0.1617448997        1.1731903535
 C         -3.5876662129       -1.2211756505        1.1496748238
 O         -3.7334114319       -2.0327320552        2.0850584116
 H          0.3531258890       -1.6630145935       -1.4960858790
 C          0.5957294126       -1.5504911742       -0.4514323254
 C         -0.3221433779       -1.9340266329        0.5136022209
 C          0.0004031854       -1.7424410659        1.8542845936
 C          1.2128026926       -1.1854277803        2.2153020160
 C          2.1239606372       -0.7966798368        1.2481785017
 C          1.8035343579       -0.9671788650       -0.0913076854
 N          2.7145778936       -0.5580879641       -1.0812083006
 S          3.3640402613        0.9858335281       -0.9542421804
 O          2.4833609155        1.8834598941       -0.2428572695
 O          3.7163872182        1.3634312526       -2.3057863683
 C          4.8610665915        0.7304217019       -0.0222690673
 C          5.7609741283       -0.2113236532       -0.4817670085
 C          6.9336968231       -0.4181897202        0.2266714280
 C          7.1875257717        0.3181322846        1.3743789871
 C          6.2762665984        1.2629246956        1.8204432710
 C          5.1005141417        1.4737768574        1.1167349971
 H          4.3602977600        2.1933613583        1.4291168328
 H          6.4750555336        1.8351656126        2.7123943662
 H          8.1008641953        0.1550159437        1.9243844479
 H          7.6447286768       -1.1519956609       -0.1171816155
 H          5.5275272762       -0.7596080719       -1.3790253502
 H          2.3792719289       -0.7209881014       -2.0203583092
 H          3.0657095288       -0.3495116431        1.5216912844
 H          1.4506406189       -1.0473641750        3.2591790432
 H         -0.7220610783       -2.0218318506        2.6088038799
 C         -1.6871885840       -2.4663471543        0.1510139815
 H         -2.0304723384       -3.1083900456        0.9727518823
 C         -1.7127475917       -3.2679396415       -1.1335172621
 C         -1.0939949799       -4.6324027758       -1.1541585584
 C         -2.5836684492       -4.4837097591       -1.2184097693
 H         -3.0845862494       -4.6931227595       -2.1517339591
 H         -3.1628014859       -4.7454330046       -0.3448466672
 H         -0.5699755788       -4.9482811391       -2.0431961459
 H         -0.6604583703       -4.9952099668       -0.2345687262
 H         -1.6305992362       -2.6595107214       -2.0251217351
 O         -1.7485604008       -0.3170015104       -1.8444765776
