  62
        -98.94308710
 C         -1.7648193880       -1.4198564000       -0.0689367805
 C         -3.0710627165       -1.1961749131        0.4441950898
 C         -3.8213957555       -0.0810768748       -0.1423538021
 C         -3.2551289312        0.6697220613       -1.1036467980
 C         -3.8856804347        1.8446416673       -1.8002881652
 C         -3.7575473164        3.1660450654       -1.0298217561
 C         -4.6444714145        3.2843749071        0.2102500698
 H         -4.6214541913        4.3305205797        0.5218140466
 H         -5.6749919519        3.0480978672       -0.0570204698
 C         -4.2026104908        2.4086372748        1.3912809712
 H         -3.1689535776        2.0878983673        1.2418671400
 H         -4.2239762691        2.9989859796        2.3100482528
 C         -5.0739894257        1.1748419645        1.6272289932
 H         -6.0822585817        1.4858791125        1.9097745647
 H         -4.6501613148        0.6103225775        2.4616849853
 C         -5.1745877410        0.2316413065        0.4211275780
 H         -5.6220210624       -0.7071567864        0.7569873021
 H         -5.8140776354        0.6681741359       -0.3459878712
 H         -2.7128093046        3.3044037110       -0.7427512478
 H         -4.0232367648        3.9714706562       -1.7183656809
 H         -3.3719388895        1.9522311071       -2.7581499625
 H         -4.9381680769        1.6352879047       -1.9936149573
 O         -2.0070527894        0.4229291856       -1.5753708565
 C         -1.2256911132       -0.6129388706       -1.0731144261
 O         -0.1092930621       -0.6888750308       -1.6177403498
 O         -3.5854365701       -1.8980329406        1.3543256058
 C         -0.9455212186       -2.5165771070        0.5930119624
 C          0.3589610895       -1.9241138614        1.0580238424
 C          0.4112167826       -1.2231105066        2.2591744627
 C          1.5758936612       -0.5949038037        2.6601088101
 C          2.7010345842       -0.6230804222        1.8544138745
 C          2.6490476779       -1.3019641507        0.6440502011
 C          1.4955028818       -1.9765792516        0.2673515257
 H          1.4675921194       -2.5014647635       -0.6744602732
 N          3.7613959073       -1.2801212351       -0.2137380594
 S          4.5953232186        0.1603397916       -0.3712185474
 O          5.1436293995        0.1389898944       -1.7102409669
 O          5.5683613617        0.2624685730        0.6907660986
 C          3.4143279749        1.4930784077       -0.2077540175
 C          2.2075416290        1.4303071513       -0.8746737320
 C          1.3194753772        2.4870647705       -0.7474448249
 C          1.6506986019        3.5866424409        0.0279963086
 C          2.8705906404        3.6373861098        0.6850444696
 C          3.7599434200        2.5817748295        0.5690083444
 H          4.7134544493        2.5747696675        1.0720916282
 H          3.1284106487        4.4926395898        1.2887643497
 H          0.9546612010        4.4055308134        0.1216166252
 H          0.3687889430        2.4290479958       -1.2548742980
 H          1.9377452219        0.5673122253       -1.4625204655
 H          3.5771811171       -1.6886563562       -1.1186415222
 H          3.6132264673       -0.1251006341        2.1418273009
 H          1.6063790685       -0.0654415116        3.6000619731
 H         -0.4775213982       -1.1686600774        2.8723775660
 H         -1.5346219786       -2.7944742482        1.4813701462
 C         -0.7677566170       -3.7892958369       -0.2201211838
 C         -1.9256321950       -4.3669847236       -0.9770132488
 C         -0.7411238235       -3.8261829780       -1.7173074846
 H         -0.0727193816       -4.5288417938       -2.1941758710
 H         -0.8478792430       -2.8973145060       -2.2541200720
 H         -2.0796502492       -5.4352181155       -0.9550613306
 H         -2.8404136829       -3.7922978332       -0.9925368716
 H         -0.1220967399       -4.4985326367        0.2897209318
