  62
        -98.93916452
 C         -2.4602738100       -0.8514339303        0.7986560906
 C         -3.2537134402       -0.5158603900       -0.3255865091
 C         -3.9962237103        0.7503570999       -0.2289653286
 C         -3.8697162202        1.5100717895        0.8739250416
 C         -4.5269797503        2.8436501994        1.0784041322
 C         -3.6269007604        3.9889512096        0.5937387125
 C         -3.0562743106        3.7759673902       -0.8084693777
 H         -2.4621959507        4.6585185503       -1.0553277875
 H         -2.3726218205        2.9237436102       -0.7914041681
 C         -4.1150010907        3.5521956405       -1.8972240776
 H         -5.0879934707        3.8962821002       -1.5445558474
 H         -3.8538768909        4.1560005708       -2.7688354275
 C         -4.2337711807        2.1048758506       -2.3784358681
 H         -4.8430958608        2.0973506509       -3.2861458080
 H         -3.2446146607        1.7241238808       -2.6460587784
 C         -4.8753384305        1.1237955602       -1.3892208884
 H         -5.8278593504        1.5253908000       -1.0375753881
 H         -5.0718870304        0.1920493704       -1.9276169686
 H         -4.2048130805        4.9146068996        0.6162253329
 H         -2.7921443203        4.0920668795        1.2907568524
 H         -5.4742139203        2.8607136095        0.5430157523
 H         -4.7203304901        2.9717017190        2.1447783323
 O         -3.0758952500        1.1674463592        1.9209898414
 C         -2.3456007399       -0.0079225407        1.9043192809
 O         -1.6378316597       -0.1865569710        2.9176587407
 O         -3.3488021802       -1.2309462397       -1.3561541794
 C         -1.6499377999       -2.1376573303        0.8236136301
 C         -0.5295942300       -2.0291035298       -0.1833988900
 C         -0.4497765001       -2.7962730994       -1.3367160103
 C          0.6030673398       -2.6207141090       -2.2193760304
 C          1.5933727297       -1.6890195490       -1.9707789602
 C          1.5273129298       -0.9213042394       -0.8140688900
 C          0.4719518599       -1.0978019798        0.0676290801
 H          0.4132347000       -0.5008718701        0.9699607303
 N          2.5285716998        0.0357910906       -0.5517579298
 S          4.1264788698       -0.4876220392       -0.7432099602
 O          4.4628594796       -0.4157423987       -2.1428639902
 O          4.3020876200       -1.7795507394       -0.1179655806
 C          5.0185671298        0.7647988306        0.1561225501
 C          5.3778335500        0.5251375401        1.4688342000
 C          6.0571990500        1.5102224800        2.1681536102
 C          6.3609019598        2.7123622402        1.5469978206
 C          5.9927822796        2.9382512306        0.2288879707
 C          5.3143725596        1.9572228608       -0.4765607495
 H          5.0173004994        2.0840816811       -1.5044516894
 H          6.2331648995        3.8733547408       -0.2506421690
 H          6.8906867298        3.4766205301        2.0933707708
 H          6.3467360602        1.3362246596        3.1920471801
 H          5.1295079201       -0.4276854100        1.9086372797
 H          2.4041575799        0.4638227903        0.3562086704
 H          2.4213729996       -1.5525882687       -2.6475459203
 H          0.6532923297       -3.2204537687       -3.1157953806
 H         -1.2144199801       -3.5241214194       -1.5509249305
 H         -1.1935815597       -2.1839760806        1.8226994900
 C         -2.5317155998       -3.3532669403        0.6390687498
 C         -2.0321649696       -4.6978973804        1.0715718492
 C         -3.1174943295       -4.0160821107        1.8479291296
 H         -4.1216748895       -4.4074394008        1.7845767396
 H         -2.8720752794       -3.5994442611        2.8141888297
 H         -2.2906750196       -5.5607795102        0.4770200090
 H         -1.0467468995       -4.7457305604        1.5103403391
 H         -3.1518238499       -3.2987903300       -0.2469489901
