  62
        -98.94007933
 C          2.6394661921        1.1403861991        0.2672588042
 C          2.5665824724        0.2993184759       -0.8710899932
 C          3.4097892391       -0.9066332516       -0.8310531451
 C          4.1764179101       -1.1465442251        0.2472082944
 C          5.0306208135       -2.3651802712        0.4406933644
 C          4.2544542796       -3.4754888778        1.1632179436
 C          2.8754238675       -3.7559581052        0.5653677677
 H          2.4337063716       -4.5745489803        1.1380286278
 H          2.2373793990       -2.8811281866        0.7131563481
 C          2.8916879890       -4.1239540481       -0.9249788785
 H          3.8960670236       -4.4310074324       -1.2187868471
 H          2.2323075615       -4.9803699017       -1.0805149286
 C          2.4078542891       -3.0130637242       -1.8590910622
 H          2.2541399902       -3.4464555522       -2.8507640147
 H          1.4415223987       -2.6363753043       -1.5135638668
 C          3.3575929593       -1.8198163959       -2.0234652641
 H          2.9834453840       -1.2108022827       -2.8514861057
 H          4.3568028648       -2.1761685638       -2.2814323779
 H          4.8544095937       -4.3869878303        1.1412557838
 H          4.1214418742       -3.1817656321        2.2072579108
 H          5.8961420711       -2.0874214828        1.0445805604
 H          5.3747327221       -2.7193541009       -0.5289661795
 O          4.2139459111       -0.3208977640        1.3251352513
 C          3.4310014146        0.8214844170        1.3728313255
 O          3.5202891131        1.4574192351        2.4429549781
 O          1.8393623873        0.5272814157       -1.8705264750
 C          1.7868080043        2.3925306892        0.3834492329
 C          0.3710647875        2.0865954153       -0.0438675944
 C         -0.3118182421        2.7890512764       -1.0268955995
 C         -1.6119304198        2.4460974959       -1.3562522269
 C         -2.2561243203        1.4012225257       -0.7208143705
 C         -1.5850517216        0.6951914588        0.2694493354
 C         -0.2883910500        1.0496371348        0.6062009633
 H          0.2347851681        0.4991675474        1.3803818925
 N         -2.2220524001       -0.3831494617        0.9082984069
 S         -3.7692329562       -0.1538681784        1.5165852282
 O         -3.9880661213        1.2212202687        1.9019711971
 O         -3.9129015126       -1.1439536819        2.5619881540
 C         -4.8346843050       -0.5870715817        0.1579403491
 C         -4.6666369361       -1.8250610716       -0.4307957708
 C         -5.4937670491       -2.1829636293       -1.4832821211
 C         -6.4715823391       -1.3034881215       -1.9241576032
 C         -6.6300296724       -0.0657771958       -1.3198851255
 C         -5.8048943930        0.2990717831       -0.2672856645
 H         -5.8871241286        1.2530220711        0.2288321090
 H         -7.3908929734        0.6161319670       -1.6640889501
 H         -7.1137129652       -1.5848314508       -2.7437832108
 H         -5.3727325883       -3.1443501451       -1.9560496100
 H         -3.8968598287       -2.4797018759       -0.0571863561
 H         -1.6409091663       -0.8586233994        1.5830879027
 H         -3.2645949475        1.1258615379       -0.9829278408
 H         -2.1281900608        2.9961398288       -2.1282324229
 H          0.1799653541        3.5905870409       -1.5526107273
 H          1.7641841037        2.6198982064        1.4629581220
 C          2.3751515800        3.6179036133       -0.2999964553
 C          3.8535415779        3.7514195659       -0.5087361629
 C          2.9444649558        3.5682260781       -1.6847725752
 H          2.7775279368        4.4131201991       -2.3369062988
 H          2.9394638085        2.6165129780       -2.1912054541
 H          4.3071306111        4.7184429414       -0.3506027375
 H          4.4789366030        2.9229487701       -0.2084647058
 H          1.8493972274        4.5259480895       -0.0205606023
