  62
        -98.93552051
 C         -2.3684110186       -1.2176702815        0.2112098623
 C         -2.6488855099       -0.2978337451        1.2524388672
 C         -3.2090546101        1.0064450361        0.8637601381
 C         -3.4128557642        1.2608954158       -0.4398680325
 C         -3.8963116761        2.5414598622       -1.0620375508
 C         -2.7039136128        3.4260004107       -1.4663187477
 C         -2.2001339987        4.3647703789       -0.3715034940
 H         -1.2930245768        4.8423252081       -0.7492729622
 H         -2.9409736135        5.1490452256       -0.2002488761
 C         -1.8769194520        3.6900605127        0.9640546672
 H         -1.3392171065        2.7572120864        0.7783152919
 H         -1.1982783453        4.3460228393        1.5130971593
 C         -3.1219107196        3.4293851876        1.8255562098
 H         -2.9545574448        3.8255334284        2.8292183329
 H         -3.9629094317        3.9843624455        1.4099891741
 C         -3.5100599704        1.9533441741        1.9931690472
 H         -4.5788540622        1.8904889076        2.2239899504
 H         -2.9790244821        1.5330712707        2.8528983017
 H         -1.8873746986        2.7708069112       -1.7843554611
 H         -2.9914254564        4.0321538924       -2.3282170765
 H         -4.5674545749        3.0688956919       -0.3906187951
 H         -4.4456434377        2.2627101218       -1.9637901062
 O         -3.1356746271        0.3502705630       -1.4112334047
 C         -2.5869906777       -0.8906567844       -1.1263371861
 O         -2.3610420983       -1.5787465018       -2.1414685909
 O         -2.4349811242       -0.5616444531        2.4665942097
 C         -1.7341699517       -2.5352156491        0.6268215854
 C         -0.2368420189       -2.3625985526        0.6502151349
 C          0.5179034095       -2.6548088648        1.7793837346
 C          1.8814885110       -2.4135361262        1.7988820595
 C          2.5152057176       -1.8591381377        0.7003701108
 C          1.7674410975       -1.5663160854       -0.4319885604
 C          0.4094993390       -1.8313297885       -0.4580968716
 H         -0.1615962538       -1.5941502739       -1.3444978235
 N          2.3964793543       -0.9233243461       -1.5339926668
 S          2.4041479359        0.7529266688       -1.3134895444
 O          1.1690537414        1.2147289825       -0.7174059098
 O          2.7408403142        1.3199975800       -2.6013906939
 C          3.7568716299        0.9725423410       -0.1806918426
 C          5.0407172005        0.7788416882       -0.6527153819
 C          6.1023515302        0.9029219747        0.2289859861
 C          5.8621568629        1.2136758764        1.5595087584
 C          4.5672259456        1.4057904948        2.0166219788
 C          3.5003651411        1.2835240868        1.1396972896
 H          2.4761888284        1.4174298316        1.4504008896
 H          4.3819223455        1.6460062852        3.0511564693
 H          6.6893400097        1.3066013719        2.2453888415
 H          7.1108454078        0.7547165438       -0.1219861004
 H          5.1772251584        0.5414453337       -1.6945826428
 H          1.9174760106       -1.1135605273       -2.4053666068
 H          3.5729937816       -1.6527390881        0.7104261633
 H          2.4538278707       -2.6451651374        2.6837157523
 H          0.0236946014       -3.0518260872        2.6538498794
 H         -2.0663937546       -2.6949279337        1.6646459751
 C         -2.1983429785       -3.7287906852       -0.1938735227
 C         -1.3029872430       -4.4944253894       -1.1174656616
 C         -1.7393223215       -5.1083615816        0.1766786266
 H         -2.4550711503       -5.9157208882        0.1538028862
 H         -1.0024107538       -5.1898657666        0.9613616803
 H         -1.7312109630       -4.8563723119       -2.0397319492
 H         -0.2750863747       -4.1807868255       -1.2120632423
 H         -3.2317595629       -3.6266303074       -0.5081564333
