  62
        -98.94579256
 C          1.6999249610        1.3057849091        0.3827754594
 C          1.2979494307        0.2064182489       -0.4132492902
 C          1.8957425705       -1.0913989111       -0.0703318099
 C          2.7157886808       -1.1815770408        0.9911971599
 C          3.4238518907       -2.4305063808        1.4281488701
 C          4.8045078605       -2.5510540512        0.7674552298
 C          4.7850641602       -2.3416083517       -0.7466539703
 H          5.8066134401       -2.4804003420       -1.1068555305
 H          4.5066713303       -1.3068463618       -0.9587008005
 C          3.8413796098       -3.2850816118       -1.5052302897
 H          3.5898534499       -4.1404186916       -0.8771891794
 H          4.3628149395       -3.6695637822       -2.3842422297
 C          2.5534621298       -2.6268621518       -2.0031820996
 H          2.0683900595       -3.3145153719       -2.7007384792
 H          2.7992772498       -1.7169324820       -2.5561755500
 C          1.5235883901       -2.2716680613       -0.9228477394
 H          1.3227968902       -3.1445653610       -0.2976810291
 H          0.5920792400       -1.9965269113       -1.4258477993
 H          5.2102632605       -3.5383145712        0.9957414800
 H          5.4653782208       -1.8016637812        1.2095048294
 H          3.5491529210       -2.3912162905        2.5117930101
 H          2.8097844805       -3.2936848708        1.1777327406
 O          3.0316444212       -0.1172143306        1.7730756195
 C          2.5262471313        1.1420462593        1.4961129592
 O          2.8781436917        2.0242886396        2.3064957088
 H         -0.5959609886        1.4174390999        1.6919005599
 C         -1.0934060087        1.8874718997        0.8549626999
 C         -0.3508593489        2.6088904193       -0.0728349405
 C         -1.0178158791        3.1999760490       -1.1379346105
 C         -2.3878705691        3.0545834492       -1.2758214501
 C         -3.1148774390        2.2982462296       -0.3754181597
 C         -2.4552537988        1.7022107799        0.6933655804
 N         -3.1377729987        0.8861949303        1.6227023408
 S         -2.7378965189       -0.7432812098        1.6089111812
 O         -3.5813277388       -1.3472881593        2.6191465016
 O         -1.3174670289       -0.9034102100        1.7838769909
 C         -3.2598689495       -1.3059882002       -0.0024843285
 C         -2.4851068397       -1.0118185207       -1.1065863688
 C         -2.9456633501       -1.3874368311       -2.3599994685
 C         -4.1613107503       -2.0407536709       -2.4884890580
 C         -4.9270058900       -2.3275955404       -1.3681348977
 C         -4.4765993196       -1.9524222301       -0.1131160279
 H         -5.0354613294       -2.1542944697        0.7865219123
 H         -5.8716747301       -2.8373706503       -1.4687076673
 H         -4.5128032506       -2.3276430812       -3.4670883578
 H         -2.3451632103       -1.1592743114       -3.2260748987
 H         -1.5399446396       -0.5042959508       -0.9862851392
 H         -4.1443972087        0.9728822504        1.5729955710
 H         -4.1788305091        2.1612176597       -0.4984013793
 H         -2.8920743093        3.5193196090       -2.1092404301
 H         -0.4637735292        3.7577495187       -1.8747648608
 C          1.1395537712        2.6993615291        0.1504079891
 H          1.3019599015        3.2311895794        1.1032080588
 C          1.8682768110        3.4956173987       -0.9225409714
 C          3.2864650909        3.1788570083       -1.2906556317
 C          2.1822047906        2.9140612182       -2.2670628213
 H          2.1033807504        3.5535700379       -3.1340145415
 H          1.8860926804        1.8929796782       -2.4461680209
 H          3.7542465609        2.3364844984       -0.8012264115
 H          3.9608485810        4.0002398882       -1.4815931021
 H          1.6086826712        4.5492866587       -0.8933000317
 O          0.4836995204        0.2942677887       -1.3692324400
