  62
        -98.93962697
 C          1.0890660435        1.4420047095        0.0694034513
 C          1.9176425778        0.9704267415        1.1133639521
 C          2.7162169047       -0.2277693008        0.8150565248
 C          2.5926922830       -0.8120212506       -0.3909742014
 C          3.4014432770       -1.9823851382       -0.8742258083
 C          4.8130526935       -1.5119517062       -1.2805000199
 C          5.9394327672       -2.0737871687       -0.4128579882
 H          6.1144455580       -3.1160900813       -0.6877432920
 H          6.8463970949       -1.5141930009       -0.6514998685
 C          5.7062083786       -2.0219472015        1.1002281099
 H          6.6728746306       -2.1978126977        1.5770970468
 H          5.0578344371       -2.8462216943        1.4012215245
 C          5.1206538359       -0.7127336840        1.6450184929
 H          5.3499906479        0.1186258900        0.9780125358
 H          5.6047940312       -0.4961593267        2.5996073645
 C          3.6038107207       -0.7500747125        1.9109317125
 H          3.3044029265       -1.7692050581        2.1716291261
 H          3.3864644178       -0.1141691404        2.7745062421
 H          5.0075672358       -1.7945953474       -2.3160757000
 H          4.8346761884       -0.4208681951       -1.2436538726
 H          3.4616631331       -2.7372271918       -0.0933975916
 H          2.8829246013       -2.4058889561       -1.7336876593
 O          1.7598583658       -0.3477402254       -1.3563524384
 C          0.9781200696        0.7790567709       -1.1534732517
 O          0.2477521070        1.0789299987       -2.1136969068
 O          1.9795476467        1.5208646897        2.2474748928
 C          0.2274181873        2.6698755770        0.3074435910
 C         -1.2247642116        2.2721216098        0.2163286026
 C         -2.1518710418        2.8992067838       -0.6039810085
 C         -3.4568712265        2.4389531454       -0.6673552936
 C         -3.8665764291        1.3546175816        0.0862502394
 C         -2.9487507535        0.7294578532        0.9208752195
 C         -1.6445340628        1.1904941006        0.9823220970
 H         -0.9301202255        0.6965315700        1.6298319558
 N         -3.3517325003       -0.3857716332        1.6902187675
 S         -3.7959969374       -1.7434231793        0.8130892566
 O         -5.0343827433       -1.4703997027        0.1302015026
 O         -3.8183076706       -2.8282326769        1.7682599453
 C         -2.4841897512       -1.9912589471       -0.3686441748
 C         -1.3903834143       -2.7449622630        0.0074170468
 C         -0.3530213243       -2.9160261917       -0.8942210358
 C         -0.4225803276       -2.3232813594       -2.1454143109
 C         -1.5202797331       -1.5566916308       -2.5022083840
 C         -2.5634843676       -1.3867589661       -1.6068250064
 H         -3.4353729169       -0.8021934708       -1.8508012442
 H         -1.5583928164       -1.0798629294       -3.4678138583
 H          0.3871874681       -2.4481244211       -2.8465932668
 H          0.5071436674       -3.5048724475       -0.6173752527
 H         -1.3783408100       -3.1961819650        0.9870784454
 H         -2.6612197639       -0.6539429011        2.3780383665
 H         -4.8727995369        0.9716375388        0.0325208663
 H         -4.1645887364        2.9310067903       -1.3171052117
 H         -1.8518539078        3.7415733593       -1.2048854172
 H          0.4346927481        2.9791241029        1.3424928744
 C          0.6163869374        3.7952560589       -0.6262864153
 C          0.3603156608        5.2189071522       -0.2340407317
 C          1.7607996587        4.6863414384       -0.2506526453
 H          2.4317739190        5.0195790354       -1.0281034902
 H          2.2489012870        4.4973185093        0.6944545346
 H          0.0714250314        5.9219144077       -1.0005782154
 H         -0.1023841858        5.3976495288        0.7247572635
 H          0.5165525326        3.5244315870       -1.6710185504
