  62
        -98.94403929
 C          1.8281780224        1.1366741182        0.2672475844
 C          2.1500883224        0.1393250287       -0.6844330567
 C          3.5760494570        0.0142858196       -1.0141422564
 C          4.4713195721        0.8420499070       -0.4453330185
 C          5.9546668301        0.8513034717       -0.6980279402
 C          6.7362524466       -0.1685437466        0.1415268494
 C          6.5572733787       -1.6287805916       -0.2759212682
 H          6.7514013792       -1.7267419059       -1.3444278277
 H          7.3202721609       -2.2077074404        0.2482079020
 C          5.1784678532       -2.2176837268        0.0542478426
 H          4.6784245615       -1.5856574689        0.7917329446
 H          5.3021261583       -3.2029130592        0.5094444085
 C          4.2564273247       -2.3900785220       -1.1530704267
 H          3.2956927334       -2.7744711592       -0.7998508863
 H          4.6823700511       -3.1268815884       -1.8379154212
 C          3.9883660397       -1.0959471250       -1.9325667254
 H          4.8704101776       -0.8115835999       -2.5061340921
 H          3.1625866138       -1.2782382768       -2.6249605359
 H          7.7957819567        0.0835498191        0.0568873054
 H          6.4493660046       -0.0515678112        1.1890782189
 H          6.1472411411        0.6770269942       -1.7568985919
 H          6.3075157178        1.8520583928       -0.4398553658
 O          4.1150221265        1.8086808309        0.4421199022
 C          2.7957930758        1.9635706291        0.8374053647
 O          2.6152862393        2.8577395170        1.6887185670
 O          1.2967687988       -0.6080306887       -1.2300323117
 C          0.3865485828        1.3341485705        0.6988453008
 C         -0.1939774242        0.0337918089        1.1980718853
 C          0.5381833205       -0.7235921223        2.1091756417
 C          0.0447933816       -1.9192229182        2.5922360725
 C         -1.1922171103       -2.3837269760        2.1811334716
 C         -1.9397519721       -1.6285373595        1.2859857530
 C         -1.4435150272       -0.4226365748        0.8079310450
 H         -2.0344769540        0.1417454381        0.1064981411
 N         -3.2185945515       -2.0508148443        0.9019230946
 S         -3.8618973810       -1.7051404995       -0.6002353857
 O         -4.9769462747       -2.6220932692       -0.7206322604
 O         -2.8784616324       -1.7689947288       -1.6546608443
 C         -4.5021354058       -0.0505731148       -0.4467125233
 C         -4.4248721577        0.7969511103       -1.5339002077
 C         -4.9692719473        2.0681963350       -1.4348843639
 C         -5.5777207384        2.4679909375       -0.2550671331
 C         -5.6470584249        1.6044706512        0.8275575983
 C         -5.1099542524        0.3306039505        0.7331701954
 H         -5.1476532848       -0.3658268062        1.5538234325
 H         -6.1190401428        1.9198686215        1.7440399456
 H         -5.9972354884        3.4587088382       -0.1796829557
 H         -4.9158384023        2.7401676001       -2.2770324935
 H         -3.9303046465        0.4494361362       -2.4274093809
 H         -3.4848858990       -2.9690145670        1.2250185701
 H         -1.5758655737       -3.3227707271        2.5500095151
 H          0.6294132796       -2.4996213530        3.2903126679
 H          1.5082779010       -0.3638329758        2.4254246188
 H          0.4174479793        2.0400898130        1.5422002890
 C         -0.4137088387        1.9595473155       -0.4249376451
 C         -1.5650351579        2.8663595234       -0.1122656081
 C         -0.2915997583        3.4339041966       -0.6614369942
 H         -0.2809864963        3.7932335746       -1.6794534892
 H          0.3549326296        3.9877229212        0.0038501275
 H         -2.4336084165        2.8373924139       -0.7524789767
 H         -1.7906392777        3.0438459124        0.9282568569
 H         -0.4858600745        1.3151293864       -1.2946316651
