  62
        -98.93871453
 C          1.9401983779        1.1117215202       -0.2406526546
 C          3.0485650706        1.1076657633        0.6442995957
 C          4.2576178638        0.3752986945        0.2236446453
 C          4.2570490416       -0.2300149951       -0.9781370603
 C          5.3437153008       -1.0591932940       -1.6088648966
 C          5.4345023842       -2.4704765868       -1.0064406059
 C          5.3453256304       -2.5256396712        0.5164750870
 H          5.3141876963       -3.5786751457        0.8088738802
 H          4.4044929091       -2.0743805652        0.8375487174
 C          6.5052587123       -1.8685474305        1.2609957605
 H          7.4396254505       -2.3496000792        0.9631567914
 H          6.3570799316       -2.0630246561        2.3263442752
 C          6.6544442743       -0.3573852942        1.0712062259
 H          7.1103351063       -0.1251840598        0.1124686610
 H          7.3480478392       -0.0011068547        1.8384653186
 C          5.3647349645        0.4378844566        1.2478907703
 H          5.6201617214        1.5003374650        1.3412346673
 H          4.9053144651        0.1681640219        2.2057210185
 H          6.3694281753       -2.9269774475       -1.3358224457
 H          4.6094747884       -3.0635409665       -1.4090298122
 H          6.2971002990       -0.5445357107       -1.5356404039
 H          5.0946396593       -1.1492758369       -2.6685907159
 O          3.1748696876       -0.1909902032       -1.8037764239
 C          1.9992005864        0.4548810719       -1.4687461184
 O          1.1160621379        0.3584607604       -2.3467515777
 O          3.0330764273        1.6985361670        1.7576273053
 C          0.7045307360        1.8647781595        0.2223506678
 C         -0.3343954461        0.9313609074        0.7975520980
 C         -0.7958395245        1.0897174460        2.0988688351
 C         -1.7565203701        0.2372627181        2.6155698721
 C         -2.2741831650       -0.7896979100        1.8473627297
 C         -1.8190461997       -0.9551624986        0.5450669103
 C         -0.8656134142       -0.0918674363        0.0251914216
 H         -0.5182230554       -0.2253484000       -0.9884868081
 N         -2.3351406510       -1.9958497011       -0.2465005143
 S         -3.9963692313       -2.1926585641       -0.2725502309
 O         -4.4115734505       -2.9367106544        0.8911142299
 O         -4.2923365925       -2.8044338845       -1.5488750670
 C         -4.6606782706       -0.5385112975       -0.1978430872
 C         -5.4624041378       -0.1632532678        0.8605866984
 C         -5.9378171853        1.1374114810        0.9128095713
 C         -5.6008485346        2.0362109391       -0.0869861057
 C         -4.7959229833        1.6428171089       -1.1452940859
 C         -4.3189332829        0.3438119930       -1.2036729320
 H         -3.6925834132        0.0076408856       -2.0148092875
 H         -4.5340948026        2.3424950371       -1.9227540892
 H         -5.9669213646        3.0497644578       -0.0433852801
 H         -6.5649217270        1.4456555369        1.7336783457
 H         -5.6963341261       -0.8936774379        1.6178153972
 H         -1.9457116516       -2.0239381767       -1.1774997294
 H         -3.0127244371       -1.4717039569        2.2366194525
 H         -2.1030178832        0.3703473857        3.6288581701
 H         -0.3852194723        1.8784803270        2.7117459998
 H          1.0551141642        2.5143394563        1.0354053827
 C          0.0908528831        2.7360582330       -0.8572711569
 C         -0.7717458242        3.8930846905       -0.4557294819
 C          0.5874711782        4.1377658458       -1.0379146326
 H          0.6604134965        4.5324172383       -2.0402520293
 H          1.3726009614        4.4782398560       -0.3784828538
 H         -1.6367597078        4.1232748107       -1.0579085987
 H         -0.9097944862        4.0714253732        0.5996451418
 H         -0.1814574184        2.1866170034       -1.7488293334
