  62
        -98.94522956
 C          2.4546407468       -1.2190893382        0.0760752598
 C          3.5022340394       -0.7635612735       -0.7649295146
 C          4.3270160671        0.3266006837       -0.2353001162
 C          4.0655252683        0.8270562082        0.9857924663
 C          4.8223670079        1.9327665183        1.6701097416
 C          4.3674155210        3.3414297273        1.2641508470
 C          4.7793630378        3.7781464071       -0.1423729568
 H          4.5896582657        4.8510890163       -0.2118524265
 H          5.8520336940        3.6279612849       -0.2682998317
 C          4.0214374914        3.0695392794       -1.2738382019
 H          3.1174315729        2.6047578826       -0.8722295383
 H          3.6982285617        3.8067154449       -2.0123088939
 C          4.8361333510        2.0109211156       -2.0174041311
 H          5.6696697084        2.4887312803       -2.5367457800
 H          4.1907754328        1.5485388569       -2.7684236735
 C          5.3931738958        0.8972612998       -1.1210509135
 H          5.7589715502        0.0917924448       -1.7623010624
 H          6.2227755790        1.2741220520       -0.5235688885
 H          3.2802789460        3.3985303268        1.3602334449
 H          4.8009376736        4.0427937058        1.9809066658
 H          4.6495983424        1.8109290697        2.7416054143
 H          5.8894226806        1.8229387426        1.4747793752
 O          3.0602611159        0.3544964864        1.7687513429
 C          2.2162189713       -0.6563787266        1.3299903571
 O          1.3269507426       -0.9581165846        2.1506285312
 H         -0.6897341825       -2.1103390933        1.1204306933
 C         -0.8178581018       -1.6382784566        0.1591557060
 C          0.2100079147       -1.6771257952       -0.7702401506
 C          0.0315989523       -1.0278266364       -1.9888608614
 C         -1.1461647423       -0.3602410745       -2.2671850289
 C         -2.1655088039       -0.3137852190       -1.3316808879
 C         -1.9901862130       -0.9441171655       -0.1077439019
 N         -3.0120310078       -0.8790518299        0.8581318643
 S         -3.6043252890        0.6474530802        1.2396190446
 O         -2.6193903440        1.6797480615        1.0105154741
 O         -4.1179081335        0.5321171252        2.5874525336
 C         -4.9757108735        0.8529279010        0.1204120708
 C         -5.9541039187       -0.1219788821        0.1031479417
 C         -7.0310484458        0.0260477531       -0.7561215577
 C         -7.1132535920        1.1414383818       -1.5765204096
 C         -6.1251664958        2.1134098169       -1.5444327678
 C         -5.0444202785        1.9706858823       -0.6878777886
 H         -4.2487531571        2.6966852076       -0.6331091570
 H         -6.1904323217        2.9802546123       -2.1822545282
 H         -7.9523121711        1.2541796187       -2.2447541095
 H         -7.8012598800       -0.7277418342       -0.7839673665
 H         -5.8535279081       -0.9709208490        0.7583642851
 H         -2.7835955989       -1.3799901539        1.7056497898
 H         -3.0810785418        0.2175631600       -1.5343831458
 H         -1.2713947349        0.1348721781       -3.2181600158
 H          0.8384704589       -1.0394674045       -2.7082691624
 C          1.5425383735       -2.3119714518       -0.4590801847
 H          1.9989407989       -2.6311941192       -1.4055554522
 C          1.4561639866       -3.5064529686        0.4665761324
 C          0.8787210130       -4.7893551949       -0.0500540791
 C          2.3480872263       -4.6855566130        0.2239548943
 H          2.7531476942       -5.2075603880        1.0779068812
 H          3.0234009604       -4.6363732911       -0.6175088622
 H          0.5552946560       -4.8087534222       -1.0796718985
 H          0.2724457841       -5.3865604108        0.6136669294
 H          1.2619360394       -3.2411144999        1.4984799114
 O          3.7375111381       -1.2494667566       -1.9025066459
