  62
        -98.94517545
 C         -2.0561698055       -0.9646592678        0.0598209995
 C         -2.7631112101       -0.2467408980        1.0527311172
 C         -3.3972348855        1.0036468416        0.6152808620
 C         -3.2271955762        1.4166598325       -0.6542471346
 C         -3.8432277284        2.6522568387       -1.2426871707
 C         -5.2048557158        2.3462393618       -1.8821629149
 C         -6.1445504969        1.5462852446       -0.9800009701
 H         -7.0836172492        1.4173010846       -1.5222197900
 H         -5.7241971393        0.5504525291       -0.8224803897
 C         -6.4254748154        2.1982120921        0.3810038430
 H         -6.1655836617        3.2567768052        0.3454821365
 H         -7.4961169899        2.1336601748        0.5857124362
 C         -5.7068138272        1.5396430549        1.5599999272
 H         -5.8881362305        0.4620648724        1.5436835644
 H         -6.1405345874        1.9309309459        2.4840275868
 C         -4.1922366060        1.7719452778        1.6336720956
 H         -3.9790415025        2.8407691030        1.5627374339
 H         -3.8484767486        1.4181021117        2.6103216228
 H         -5.6765081739        3.2916283886       -2.1561886554
 H         -5.0357708314        1.7726827609       -2.7963469701
 H         -3.9562205026        3.4022886868       -0.4620139559
 H         -3.1683114591        3.0388880368       -2.0084788079
 O         -2.5007389423        0.7244969590       -1.5682940855
 C         -1.9003082011       -0.4826114567       -1.2405471101
 O         -1.2738421852       -1.0148835002       -2.1751825597
 H          0.1014009842       -0.3488844174        1.5127498747
 C          0.7167629877       -1.0122746949        0.9159666223
 C          0.1205395646       -2.0964863716        0.2819154617
 C          0.9202332309       -2.9375153776       -0.4790837999
 C          2.2746247409       -2.6826511221       -0.6140258689
 C          2.8592386700       -1.5940790416        0.0063802888
 C          2.0694046080       -0.7521187570        0.7787574777
 N          2.6596499622        0.3666657256        1.4103754909
 S          3.2061080280        1.5662109060        0.3587620780
 O          3.2446509121        2.7771768495        1.1507951902
 O          2.4100485792        1.6148911949       -0.8473758960
 C          4.8701592959        1.0624206725       -0.0205236138
 C          5.2088994739        0.7317180137       -1.3178047131
 C          6.5098632248        0.3368976651       -1.5893389178
 C          7.4420850263        0.2798011539       -0.5643705601
 C          7.0855805254        0.6173616275        0.7330183865
 C          5.7874088901        1.0141392992        1.0112944908
 H          5.4680144395        1.2904305847        2.0021952182
 H          7.8136235800        0.5722103050        1.5267664096
 H          8.4530418869       -0.0288441615       -0.7787827198
 H          6.7884701230        0.0740611556       -2.5971961515
 H          4.4469254415        0.7850837177       -2.0791549476
 H          2.0472319360        0.7928750572        2.0930570957
 H          3.9123790133       -1.3912768620       -0.1001118493
 H          2.8827742499       -3.3407021248       -1.2155577696
 H          0.4812885084       -3.7848190980       -0.9792846282
 C         -1.3703478512       -2.2655865965        0.4412557674
 H         -1.5868633276       -2.4070210165        1.5105899093
 C         -1.9442199359       -3.4321258324       -0.3328286557
 C         -1.8662699388       -4.8178244687        0.2329641503
 C         -3.1821248647       -4.1033290264        0.1792444806
 H         -3.9220166407       -4.4331313748       -0.5345284055
 H         -3.6025264210       -3.7319644303        1.1025640028
 H         -1.7044368914       -5.6428047335       -0.4439395474
 H         -1.3940280733       -4.9372392853        1.1961882971
 H         -1.8502258346       -3.3075230784       -1.4055338901
 O         -2.8512295336       -0.6292665881        2.2519447113
