  62
        -98.93291782
 C          2.5933578075        1.1821823750       -0.3449789362
 C          2.4012183641       -0.0937110993       -0.9213118717
 C          3.4333961787       -1.1160649164       -0.6443933894
 C          4.4872366571       -0.7905020792        0.1259663325
 C          5.6320636598       -1.6622081399        0.5698583741
 C          5.2375253225       -2.6376482428        1.6897672602
 C          3.9081905251       -3.3559712912        1.4751489765
 H          3.6975145463       -3.9394273051        2.3753537392
 H          3.1124718839       -2.6150991934        1.3771775928
 C          3.8692799447       -4.3071573562        0.2813390178
 H          2.9066445482       -4.8238810795        0.3111453674
 H          4.6529366441       -5.0591769717        0.3968305474
 C          4.0156178306       -3.6582154670       -1.0970512489
 H          3.7111102254       -4.4014214501       -1.8397713330
 H          5.0531510852       -3.4168645602       -1.3114501088
 C          3.1341132361       -2.4335365275       -1.3194901775
 H          3.1090022436       -2.2123430693       -2.3932766353
 H          2.1006498999       -2.6831271958       -1.0534529384
 H          5.1635575756       -2.0709725388        2.6212540547
 H          6.0370174153       -3.3716582551        1.8043695643
 H          6.4049688114       -0.9908138598        0.9506688396
 H          6.0476951646       -2.1962282308       -0.2794186278
 O          4.6317424129        0.4547945968        0.6632928840
 C          3.7100873732        1.4562400953        0.4506462262
 O          3.9904977282        2.5380244094        1.0056209337
 O          1.4168334735       -0.4043222492       -1.6457498442
 C          1.6245219017        2.3398436370       -0.5333558764
 C          0.4117866089        2.1703074868        0.3515707359
 C          0.2306118509        2.9885958888        1.4606873845
 C         -0.8776921814        2.8358004624        2.2751211303
 C         -1.8230078962        1.8627934039        2.0051318020
 C         -1.6478145666        1.0355872341        0.9031033039
 C         -0.5416986132        1.1994836200        0.0799230505
 H         -0.3985059986        0.5439614684       -0.7662418437
 N         -2.5806610923        0.0142413904        0.6343949713
 S         -4.2164586962        0.4310908893        0.6746937909
 O         -4.4523580946        1.6111908533       -0.1280430836
 O         -4.6315565510        0.5174006341        2.0525770669
 C         -4.9529645832       -1.0002164982       -0.0877749993
 C         -5.1735966542       -2.1235920281        0.6861503895
 C         -5.7259203257       -3.2472118130        0.0924207358
 C         -6.0453378456       -3.2292526670       -1.2572773458
 C         -5.8182530152       -2.0941027828       -2.0207743478
 C         -5.2649556039       -0.9671310273       -1.4334166511
 H         -5.0796277179       -0.0601516189       -1.9864675955
 H         -6.0699828825       -2.0823248637       -3.0690737049
 H         -6.4766113414       -4.1045936306       -1.7168005365
 H         -5.9058773921       -4.1312479205        0.6825941662
 H         -4.9178738402       -2.0882637339        1.7322164555
 H         -2.3588310732       -0.4669069301       -0.2274087515
 H         -2.6930098434        1.7370753900        2.6290900693
 H         -1.0074357360        3.4804654001        3.1316285289
 H          0.9725578373        3.7412096293        1.6869880530
 H          2.1645430302        3.2309441310       -0.1864850020
 C          1.2348628438        2.5539885943       -1.9831994153
 C          0.6632136160        3.8770214834       -2.3911862607
 C          2.0436262693        3.4895818247       -2.8279872857
 H          2.2064216310        3.2372665955       -3.8650648723
 H          2.8837700328        3.9844138920       -2.3624182639
 H         -0.1256242983        3.8929503230       -3.1275891738
 H          0.5662553066        4.6354560355       -1.6288278068
 H          0.8452181109        1.6665126557       -2.4633410347
