  62
        -98.94180105
 C         -1.1302592580       -1.9385973525       -0.1291866123
 C         -1.2977902886       -0.8114526893       -0.9711597652
 C         -2.6059829340       -0.1402154330       -0.8882895043
 C         -3.5054580251       -0.5443892166        0.0261263302
 C         -4.8371326250        0.1034266615        0.2683778872
 C         -4.7305412372        1.2244884778        1.3118160314
 C         -3.6006474812        2.2176827352        1.0398026009
 H         -3.6439529843        2.9779105875        1.8220716409
 H         -2.6413786624        1.7050000075        1.1374256605
 C         -3.6699552265        2.8929138324       -0.3365372326
 H         -3.4871999813        3.9621736252       -0.2158782214
 H         -4.6710173172        2.7813581749       -0.7547568547
 C         -2.6409844865        2.3768852488       -1.3433897625
 H         -1.6431978267        2.4062465319       -0.9008405522
 H         -2.6377041833        3.0507905089       -2.2042772023
 C         -2.8799650688        0.9598388580       -1.8757217424
 H         -3.8976873436        0.8761755431       -2.2638482783
 H         -2.1827854160        0.7989790433       -2.7036017305
 H         -5.6841245706        1.7546056662        1.3443409942
 H         -4.5606932177        0.7701451931        2.2905309116
 H         -5.2162883712        0.5021983697       -0.6706614157
 H         -5.5279821123       -0.6580647067        0.6341432222
 O         -3.2748193197       -1.5747551900        0.8786571136
 C         -2.1105046859       -2.3166913735        0.7944600065
 O         -2.0618630740       -3.2787777767        1.5870906327
 O         -0.4258870131       -0.3764103268       -1.7688656134
 C          0.0934227372       -2.8417520103       -0.1770567649
 C          1.2407205834       -2.2811031159        0.6284246525
 C          1.6072651780       -2.8920874269        1.8231349865
 C          2.6688780224       -2.4085347860        2.5657485154
 C          3.3836362262       -1.3087446152        2.1290976691
 C          3.0191677836       -0.6836544654        0.9395162087
 C          1.9492467672       -1.1669963361        0.1975736449
 H          1.6679019319       -0.6671354196       -0.7159307419
 N          3.7490234774        0.4246781181        0.4961151655
 S          3.2489716163        1.5620708700       -0.6013726851
 O          2.9880251168        0.9625792244       -1.8843642872
 O          4.3140447428        2.5449158126       -0.5792381517
 C          1.7892846919        2.3662390923        0.0460256938
 C          1.2391280084        2.0353232648        1.2669133019
 C          0.1763737523        2.7860349994        1.7488538469
 C         -0.3081033330        3.8566853918        1.0162477349
 C          0.2516817941        4.1746603299       -0.2120748786
 C          1.3072995480        3.4234731231       -0.7014166249
 H          1.7734590610        3.6371532920       -1.6500157957
 H         -0.1308460399        5.0020372891       -0.7878144172
 H         -1.1293133143        4.4404805887        1.4001373993
 H         -0.2648456125        2.5308193656        2.6994686429
 H          1.6217928952        1.2012576857        1.8327310349
 H          4.4385942324        0.7882322392        1.1354428747
 H          4.2181926799       -0.9320068681        2.7003331082
 H          2.9439609935       -2.8924824000        3.4904005320
 H          1.0431586484       -3.7454330408        2.1702430841
 H         -0.2211728250       -3.7755453756        0.3094465204
 C          0.5287837826       -3.1720430109       -1.5913366629
 C          1.3100436855       -4.4272986503       -1.8315648958
 C         -0.1100245260       -4.3261622327       -2.3005487779
 H         -0.3016080460       -4.2377344834       -3.3594420133
 H         -0.8645707532       -4.8854640566       -1.7660681608
 H          2.0984898946       -4.4087459846       -2.5683442523
 H          1.5174989003       -5.0587774615       -0.9806825789
 H          0.7794154386       -2.3026651161       -2.1849224708
