  62
        -98.94433140
 C          1.8424548974        0.7691374104        0.2600782470
 C          2.3477988452       -0.5469069126        0.1323445161
 C          3.7822297627       -0.7092182625        0.4125674563
 C          4.5074030857        0.3603230733        0.7877329712
 C          5.9854344906        0.3462141830        1.0473994528
 C          6.7753465325        0.6766571997       -0.2267768126
 C          6.3429083161       -0.1325844828       -1.4495360585
 H          5.3223647324        0.1475525288       -1.7205583101
 H          6.9881326930        0.1629707130       -2.2797247880
 C          6.4164001500       -1.6544403296       -1.2623116578
 H          7.0585713839       -1.8930115728       -0.4137347680
 H          6.8755309093       -2.0946187216       -2.1500704170
 C          5.0599113833       -2.3377264304       -1.0783376912
 H          4.3823895721       -2.0296676333       -1.8789099249
 H          5.2070855960       -3.4170017653       -1.1730301279
 C          4.3626295653       -2.0873969380        0.2648939407
 H          3.5154963372       -2.7765213431        0.3331884484
 H          5.0510698864       -2.3072841881        1.0834002922
 H          7.8350463856        0.5039776212       -0.0304347451
 H          6.6396408194        1.7367121202       -0.4530928206
 H          6.2087067957        1.0969934160        1.8072373559
 H          6.2739478030       -0.6336349970        1.4226796678
 O          3.9782360269        1.6024455129        0.9291250426
 C          2.6407435358        1.8410395077        0.6588321210
 O          2.2859148733        3.0265899519        0.8165676999
 H         -1.7519065296       -0.5770702575       -0.7536261842
 C         -1.5466074399       -0.5674275213        0.3034842947
 C         -0.5051278482        0.1883643560        0.8173628858
 C         -0.2729064399        0.1584859168        2.1909512166
 C         -1.0441864042       -0.6288400685        3.0220564518
 C         -2.0750956795       -1.3936978254        2.5040313466
 C         -2.3226589601       -1.3629209511        1.1377989347
 N         -3.3575939408       -2.1308063841        0.5869186405
 S         -4.2588914802       -1.5506325663       -0.6889473578
 O         -5.5022709057       -2.2882962758       -0.6142398525
 O         -3.5330987577       -1.6738860875       -1.9277415864
 C         -4.5544201933        0.1718380655       -0.3242515824
 C         -5.0308561318        0.5161716765        0.9255632841
 C         -5.2673339795        1.8514356851        1.2081459129
 C         -5.0304367154        2.8159283357        0.2404681707
 C         -4.5608795052        2.4537696382       -1.0120654794
 C         -4.3188936961        1.1194832531       -1.2982140438
 H         -3.9476698725        0.7952008239       -2.2566290020
 H         -4.3796072301        3.2034387687       -1.7658267087
 H         -5.2138405017        3.8552305958        0.4632794377
 H         -5.6345429135        2.1362667378        2.1809195022
 H         -5.2146752234       -0.2534776977        1.6570642196
 H         -3.9194451476       -2.6395383332        1.2527709984
 H         -2.6735318099       -2.0184352556        3.1494473374
 H         -0.8442569990       -0.6478679759        4.0827928842
 H          0.5343947892        0.7545820598        2.5947702034
 C          0.3818547259        1.0510447434       -0.0457332787
 H          0.2105828412        2.1017258123        0.2308127185
 C          0.1313278839        0.8916180752       -1.5305336024
 C         -0.9337240435        1.6960268244       -2.2099914289
 C          0.5113296167        2.0119166038       -2.4499753377
 H          0.9423585054        1.7691418415       -3.4097888787
 H          0.9238530006        2.9027161794       -1.9985575558
 H         -1.4940304085        1.2306961416       -3.0070588017
 H         -1.5083509049        2.3777847664       -1.6016503887
 H          0.3065533378       -0.1207518842       -1.8777681937
 O          1.6419015600       -1.5353777996       -0.1984169479
