  62
        -98.93636310
 C          2.6197562895        1.2231429996        0.2752127803
 C          2.7799963892        0.3017771695       -0.7864304797
 C          3.8072854591       -0.7400891906       -0.6013951998
 C          4.5249517493       -0.7769671907        0.5334192301
 C          5.6354148192       -1.7222907408        0.9178836400
 C          5.4481773789       -3.2103308608        0.5916304401
 C          3.9995314989       -3.7146675406        0.6640030503
 H          3.9671665588       -4.6115125506        1.2853633204
 H          3.3650967390       -2.9652530305        1.1405456204
 C          3.4225301086       -4.0735238306       -0.7075485096
 H          4.1807976484       -4.6163589207       -1.2761173196
 H          2.5747327385       -4.7482377705       -0.5665790994
 C          2.9261037587       -2.8913172206       -1.5388027595
 H          2.0213026388       -2.4756778004       -1.0865861294
 H          2.6466707184       -3.2671254606       -2.5262317795
 C          3.9302848788       -1.7403568707       -1.7152504198
 H          4.9466190087       -2.1148871309       -1.8081621899
 H          3.6715841487       -1.2055396807       -2.6331701998
 H          5.8475333787       -3.4195868409       -0.3998199300
 H          6.0628450090       -3.7671581809        1.3008894900
 H          6.5592786392       -1.3677210710        0.4516001498
 H          5.7519300394       -1.5962787108        1.9969838299
 O          4.3391625696        0.1298697694        1.5331860701
 C          3.3995899797        1.1372849495        1.4331184802
 O          3.3542042500        1.8907047296        2.4259224801
 H          0.0871838992        0.6064102399       -1.1227728393
 C         -0.4270629906        0.9888673700       -0.2533016293
 C          0.2204210897        1.8964611700        0.5726835706
 C         -0.4537538501        2.3755387001        1.6899068807
 C         -1.7411044301        1.9525136003        1.9705936009
 C         -2.3794013803        1.0403406404        1.1493504710
 C         -1.7143480606        0.5546201102        0.0311392910
 N         -2.3374263309       -0.3946681197       -0.7958940289
 S         -3.9113392209       -0.1175724995       -1.3041933287
 O         -4.0592140912       -0.8879265396       -2.5195448486
 O         -4.1985399807        1.2950218905       -1.4007504587
 C         -4.9098675208       -0.8558179693       -0.0273686185
 C         -5.9087280106       -0.1183212091        0.5775090216
 C         -6.6834100406       -0.7169967190        1.5589895018
 C         -6.4473299407       -2.0357848590        1.9155812618
 C         -5.4419294309       -2.7637124192        1.2965762617
 C         -4.6651030810       -2.1716198293        0.3136498116
 H         -3.8771652911       -2.7036571595       -0.1930550885
 H         -5.2609096610       -3.7890313692        1.5766096617
 H         -7.0503760906       -2.4993933388        2.6802683219
 H         -7.4658092704       -0.1530912388        2.0409591119
 H         -6.0519501705        0.9059351409        0.2720274416
 H         -1.7572233610       -0.6992483899       -1.5644050690
 H         -3.3810923504        0.7058563705        1.3647647012
 H         -2.2525644199        2.3340976805        2.8410990509
 H          0.0430697501        3.0766494801        2.3448021006
 C          1.6193823197        2.3691188597        0.2534545404
 H          1.9333795899        3.0458322197        1.0593859903
 C          1.6380101896        3.1434837597       -1.0511484597
 C          1.1392799798        4.5555871497       -1.0654715997
 C          2.6039245098        4.2757777695       -1.2179199899
 H          3.0625670797        4.4235492794       -2.1841068900
 H          3.2556498099        4.5025018394       -0.3863974000
 H          0.5868790198        4.8973867598       -1.9274198196
 H          0.7986674500        4.9756475098       -0.1311609197
 H          1.4380977594        2.5303060596       -1.9199622096
 O          2.1157300491        0.3242958495       -1.8582181896
