  62
        -98.93429898
 C          2.3464913541       -1.1963562859       -0.0681954445
 C          3.2705051102       -0.5248482439       -0.9037791964
 C          4.1170547166        0.5121664306       -0.2818417014
 C          3.9423142841        0.7880007680        1.0237790838
 C          4.6437380692        1.8258499821        1.8586547293
 C          4.1268792708        3.2484787327        1.5876931247
 C          3.9175433319        3.5880570420        0.1140144692
 H          3.2200831394        2.8713095314       -0.3242136252
 H          3.4432439358        4.5718763766        0.0636965688
 C          5.1890535084        3.6398361629       -0.7297985611
 H          4.9004636054        3.9681952959       -1.7317641603
 H          5.8625991747        4.3932938112       -0.3153844885
 C          5.9578440755        2.3238966249       -0.8643311552
 H          6.5254387856        2.1084054412        0.0368773071
 H          6.6890412879        2.4555262966       -1.6673312078
 C          5.1028992702        1.1205785399       -1.2500845812
 H          4.5280362705        1.3633995960       -2.1513027048
 H          5.7694343874        0.3016571355       -1.5476567333
 H          3.1644354949        3.3590793166        2.0931926938
 H          4.8249196671        3.9601161238        2.0314367555
 H          4.4424720362        1.5766384462        2.9027966107
 H          5.7169792367        1.7660768455        1.7045641563
 O          3.0081459145        0.1473476855        1.7810900599
 C          2.1861737765       -0.8447182051        1.2726888770
 O          1.3817809564       -1.3080571238        2.1008246888
 H          0.0922806301       -0.0315531203       -1.1244340222
 C         -0.5297964979       -0.7730021184       -0.6360874663
 C          0.0189306728       -2.0118955487       -0.3251278692
 C         -0.7892019732       -2.9543160407        0.2951968837
 C         -2.1038731090       -2.6521906791        0.6063202983
 C         -2.6393661803       -1.4128339142        0.3106298701
 C         -1.8420187812       -0.4633339146       -0.3157416989
 N         -2.3684610550        0.8078953639       -0.6027381773
 S         -3.8535062728        0.9088548776       -1.3770029131
 O         -4.0867457519       -0.2359853991       -2.2267389965
 O         -3.8508318604        2.2009752363       -2.0280848445
 C         -5.0335911268        0.9340987036       -0.0446458397
 C         -6.0735347811        0.0255126022       -0.0273927068
 C         -6.9865273469        0.0722591198        1.0147461205
 C         -6.8445061515        1.0220880242        2.0146254869
 C         -5.7957208499        1.9291680015        1.9810818650
 C         -4.8804714415        1.8887193594        0.9415361091
 H         -4.0536099808        2.5763873037        0.8776169951
 H         -5.6879170975        2.6660332103        2.7607187860
 H         -7.5551877266        1.0560813136        2.8251976126
 H         -7.8026766552       -0.6316374895        1.0426941778
 H         -6.1402124905       -0.6989541844       -0.8233537805
 H         -1.7024389719        1.4410175350       -1.0205947854
 H         -3.6597324336       -1.1728134857        0.5609424507
 H         -2.7186638011       -3.3921073527        1.0956926286
 H         -0.3853680031       -3.9185668731        0.5555932028
 C          1.4601812738       -2.2543535880       -0.6997193119
 H          1.5573255598       -2.0758240976       -1.7846070063
 C          1.9179391631       -3.6849711895       -0.4597871467
 C          3.3567276194       -3.9999192568       -0.1821043923
 C          2.3293597310       -4.1820351233        0.8924801662
 H          2.0563417514       -5.1892194296        1.1718534898
 H          2.3060971136       -3.4796795613        1.7104102816
 H          3.7870461967       -4.8776923920       -0.6405471400
 H          4.0437835320       -3.1702855160       -0.0976970849
 H          1.3899894058       -4.3884409749       -1.0966215332
 O          3.3811281934       -0.7694988016       -2.1366183718
