  62
        -98.94938084
 C         -1.5588937700       -1.3932030920       -0.2852185658
 C         -2.7173769016       -0.8329424239        0.2993508418
 C         -3.1411436207        0.4643402290       -0.2387812335
 C         -2.4248723113        1.0472887912       -1.2167912340
 C         -2.7110430534        2.3814680738       -1.8504807717
 C         -2.1738515616        3.5710680602       -1.0422169820
 C         -2.9728891546        3.9139374623        0.2157793881
 H         -2.6464370278        4.9037373454        0.5414583667
 H         -4.0332700408        3.9836610620       -0.0311447835
 C         -2.7724225479        2.9289374659        1.3759634929
 H         -2.6278555319        3.4879603455        2.3041131012
 H         -1.8556336965        2.3562297136        1.2138267471
 C         -3.9397691049        1.9687036219        1.6073573565
 H         -3.6613986866        1.2835256016        2.4123926390
 H         -4.8169571086        2.5329706821        1.9339453711
 C         -4.3308840021        1.1298178964        0.3844194548
 H         -5.0135888067        0.3431777169        0.7165671654
 H         -4.8445334487        1.7520420392       -0.3484519008
 H         -2.1770036027        4.4434234225       -1.7002948799
 H         -1.1376464898        3.3678336370       -0.7583382857
 H         -2.2208031604        2.3758486623       -2.8265177982
 H         -3.7847645348        2.4973917159       -2.0018019912
 O         -1.3296910929        0.4637733402       -1.7710154869
 C         -0.8584915930       -0.7578276868       -1.3097190784
 O          0.1661786884       -1.1651783396       -1.8884004311
 H          0.0325379269       -0.5048161093        1.4297672868
 C          0.7854448498       -1.2641436321        1.2777275244
 C          0.4406312763       -2.4753947998        0.6917421574
 C          1.4321124967       -3.4351412809        0.5294620435
 C          2.7345843642       -3.1721322750        0.9177555953
 C          3.0805351904       -1.9463599655        1.4563212891
 C          2.0932182970       -0.9847100423        1.6345108740
 N          2.3898974612        0.2840985414        2.1731020042
 S          1.9981643765        1.6306258699        1.2586418052
 O          2.6593924736        2.7271730720        1.9367940074
 O          0.5703558840        1.7469970420        1.1154914339
 C          2.7724860101        1.3759131589       -0.3273887049
 C          4.1434460242        1.2045235636       -0.3635492864
 C          4.7607746351        0.9901456679       -1.5839530713
 C          4.0005458428        0.9518033879       -2.7436261402
 C          2.6287826578        1.1369465737       -2.6918381183
 C          2.0062238112        1.3511278257       -1.4721484666
 H          0.9397808014        1.4853427741       -1.3953596024
 H          2.0318567973        1.1034596469       -3.5888689696
 H          4.4800322263        0.7793102690       -3.6943037959
 H          5.8290662193        0.8517248679       -1.6288539352
 H          4.7066476432        1.2574341599        0.5543114425
 H          3.3366050534        0.3713333789        2.5157431350
 H          4.1006020791       -1.7342930022        1.7385519087
 H          3.4940816702       -3.9269796230        0.7829146301
 H          1.1856598001       -4.3885513081        0.0913033368
 C         -0.9928967089       -2.6871342512        0.2671887326
 H         -1.5931320126       -2.9165869358        1.1608893031
 C         -1.1584842279       -3.8134422065       -0.7329338004
 C         -1.3856573173       -5.2196567442       -0.2660901458
 C         -2.5077001523       -4.4464069758       -0.8887851818
 H         -2.8387712852       -4.7190027675       -1.8795666343
 H         -3.2990040421       -4.0836752867       -0.2489562815
 H         -0.9480824440       -6.0279313771       -0.8324623769
 H         -1.4235233112       -5.3943567610        0.7985800014
 H         -0.5709010306       -3.6576467378       -1.6308292508
 O         -3.3639623947       -1.3886940534        1.2294722904
