  62
        -98.94239769
 C         -1.5538177138       -1.3790365564        0.5393398378
 C         -1.3960083671       -0.2211160811       -0.2630572252
 C         -2.2243022279        0.9317162744        0.1223545987
 C         -2.9796449368        0.8790905247        1.2330403342
 C         -3.8579385793        1.9801921320        1.7620728325
 C         -5.2515026554        2.0258901344        1.1202133014
 C         -5.2864972543        2.5321148701       -0.3224185451
 H         -6.3335864326        2.7165359738       -0.5708678034
 H         -4.7649107383        3.4877628230       -0.3830776731
 C         -4.6995350332        1.5558908041       -1.3516115586
 H         -4.6383229154        0.5572151103       -0.9127086308
 H         -5.3712951748        1.4851720579       -2.2100409975
 C         -3.3218031618        1.9493574376       -1.8847355697
 H         -2.9903291392        1.1733733971       -2.5793188143
 H         -3.3998209929        2.8864669452       -2.4400349898
 C         -2.2452763942        2.1101937672       -0.8027667654
 H         -2.4087607488        3.0317166465       -0.2447226237
 H         -1.2704185238        2.1565402818       -1.2922822011
 H         -5.6910133619        1.0265997547        1.1670232286
 H         -5.8698738529        2.6881974075        1.7306237815
 H         -3.3630222519        2.9424111353        1.6280461612
 H         -3.9777051668        1.7965152464        2.8321386155
 O         -3.0110202837       -0.2140474526        2.0429808211
 C         -2.3274205862       -1.3708975640        1.7023016845
 O         -2.4689801645       -2.3055288690        2.5173322300
 O         -0.6174173065       -0.1389005714       -1.2452825372
 C         -0.8311247239       -2.6745058514        0.2137813818
 C          0.6068651480       -2.3892710408       -0.1446504986
 C          1.2044965730       -2.7911898529       -1.3312705146
 C          2.5314621497       -2.4891010231       -1.5846738805
 C          3.2874103058       -1.7814907426       -0.6691928812
 C          2.6956685609       -1.3656369847        0.5170938198
 C          1.3713732633       -1.6803356309        0.7746621353
 H          0.9118041138       -1.3567212264        1.7013758219
 N          3.4487805558       -0.6324184144        1.4544195044
 S          4.2948709455        0.7064722381        0.9109784135
 O          5.4533151799        0.2673853360        0.1740614212
 O          4.5577641502        1.4878888528        2.0990105921
 C          3.1797742355        1.5832512387       -0.1677478130
 C          2.2120726780        2.3812578068        0.4087989252
 C          1.3210691904        3.0528593575       -0.4107850124
 C          1.4043607674        2.9045379403       -1.7866395105
 C          2.3758885894        2.0931505019       -2.3494746122
 C          3.2757845525        1.4255563902       -1.5349131447
 H          4.0525480605        0.7959739938       -1.9359880826
 H          2.4328671062        1.9757865141       -3.4195378980
 H          0.7075631161        3.4259288658       -2.4244133563
 H          0.5626789123        3.6832936297        0.0256549941
 H          2.1827128292        2.4767374441        1.4828704640
 H          2.9303918822       -0.3978783737        2.2885488029
 H          4.3217353645       -1.5395984624       -0.8521930789
 H          2.9830102846       -2.8072181412       -2.5120682213
 H          0.6275193002       -3.3221348899       -2.0700055808
 H         -0.8323199377       -3.2478945189        1.1560118934
 C         -1.5504129598       -3.5330845905       -0.8170465941
 C         -3.0356709740       -3.4420204967       -0.9982279047
 C         -2.1183581379       -2.9552045443       -2.0771897560
 H         -2.0460605358       -3.5346322781       -2.9859396021
 H         -2.0162522960       -1.8923653226       -2.2270987802
 H         -3.5882511880       -4.3552466657       -1.1612808342
 H         -3.5694551509       -2.7113287587       -0.4075581002
 H         -1.1226944632       -4.5286241089       -0.8847219077
