  62
        -98.94624919
 C          1.8079296805        1.0326900004       -0.2953119890
 C          3.1635505405        1.3022479001        0.0097751516
 C          4.1263305805        0.2740201304       -0.4003568589
 C          3.6939926806       -0.8287875192       -1.0389719798
 C          4.5565434207       -1.9530984289       -1.5453253604
 C          4.9064968703       -3.0030569296       -0.4817464610
 C          5.9207050401       -2.5514075204        0.5697789596
 H          6.2371338998       -3.4435005008        1.1139277691
 H          6.8017342102       -2.1447042801        0.0723524701
 C          5.3759114099       -1.5274367511        1.5753160602
 H          4.2839856799       -1.5300740810        1.5417868099
 H          5.6657876096       -1.8202359818        2.5869582000
 C          5.8738684200       -0.0986822110        1.3573071113
 H          6.9533937600       -0.0578122812        1.5183656416
 H          5.3987434698        0.5478421785        2.0996152516
 C          5.5663247204        0.4713470300       -0.0336177684
 H          5.7593780105        1.5467913200       -0.0138353976
 H          6.2155759806        0.0136530805       -0.7797376985
 H          5.3187394504       -3.8695606293       -1.0038770415
 H          3.9856240502       -3.3199721399        0.0129906485
 H          5.4738048708       -1.5467104986       -1.9725024598
 H          3.9909449309       -2.4438224583       -2.3403140409
 O          2.3822133507       -1.0441867189       -1.3246737903
 C          1.4071398906       -0.1306128391       -0.9506788399
 O          0.2475434207       -0.4654811888       -1.2564927505
 O          3.5483904404        2.3491475997        0.5961435324
 C          0.7502574705        2.0496228202        0.0923652114
 C         -0.2952105198        1.4077280697        0.9694081307
 C          0.1154817499        0.7222100289        2.1110644703
 C         -0.8050406404        0.1169408783        2.9433141396
 C         -2.1574524303        0.1756688086        2.6519660993
 C         -2.5789726200        0.8624141695        1.5210898997
 C         -1.6509485497        1.4829387000        0.6938247604
 H         -2.0101060494        2.0034746606       -0.1774245394
 N         -3.9484408699        0.9656533398        1.2116053794
 S         -4.5113450295        0.4578167509       -0.2815310211
 O         -3.8718546992        1.2076630816       -1.3303023404
 O         -5.9497315995        0.5862930409       -0.1901457615
 C         -4.0786335296       -1.2708820591       -0.3672398322
 C         -2.7770207695       -1.6356193290       -0.6469393621
 C         -2.4510457696       -2.9837043490       -0.6447649430
 C         -3.4191096898       -3.9356951692       -0.3667635039
 C         -4.7223205898       -3.5507413293       -0.0885350940
 C         -5.0555823097       -2.2065493792       -0.0831516032
 H         -6.0554117598       -1.8606821293        0.1244375868
 H         -5.4754870699       -4.2920184494        0.1251031852
 H         -3.1559422298       -4.9818691092       -0.3685638646
 H         -1.4338350596       -3.2689020889       -0.8623407629
 H         -2.0292599594       -0.8895422989       -0.8654940814
 H         -4.5556126701        0.6033306293        1.9338885789
 H         -2.8792733405       -0.3018857918        3.2971806088
 H         -0.4693431007       -0.4107516723        3.8232736694
 H          1.1726490098        0.6709504786        2.3343725106
 H          1.2793031404        2.8092818698        0.6873047321
 C          0.1820614409        2.7146579412       -1.1435398383
 C         -0.3638862290        4.1079429811       -1.0651539874
 C          0.9333345311        3.8495594215       -1.7694371573
 H          0.9602025214        3.9184708923       -2.8466505672
 H          1.8486541010        4.1625549611       -1.2884629468
 H         -1.2331438289        4.3523508916       -1.6573036375
 H         -0.3301624793        4.6043394705       -0.1070333171
 H         -0.3087524490        2.0145597717       -1.8116004589
