  62
        -98.93679790
 C         -2.4839800910       -1.2792192793        0.2178882479
 C         -2.6573749347       -0.4296759427       -0.9009577296
 C         -3.5438558791        0.7281057891       -0.6989653402
 C         -4.1229385290        0.9111911636        0.5015978278
 C         -4.9810751237        2.0830698220        0.8859855314
 C         -4.0951869007        3.3128552217        1.1713069429
 C         -4.2856849088        4.4689938081        0.1891674659
 H         -5.2204102729        4.9824802184        0.4237208776
 H         -3.4705393083        5.1764632070        0.3557383607
 C         -4.3200686891        4.0870642805       -1.2938544068
 H         -5.3067939708        3.6984386472       -1.5497349092
 H         -4.1924926932        5.0107941598       -1.8621684358
 C         -3.2606878744        3.0765342535       -1.7526478136
 H         -2.3953563857        3.0968692921       -1.0895586961
 H         -2.9095010520        3.3784883901       -2.7413214754
 C         -3.7692648519        1.6284685390       -1.8820457364
 H         -4.8322782337        1.6361634094       -2.1379769230
 H         -3.2353787268        1.1438413716       -2.7048455764
 H         -4.2980853106        3.6821281945        2.1778411290
 H         -3.0508390519        2.9927509263        1.1601613456
 H         -5.6888076055        2.2976718624        0.0884856437
 H         -5.5368999890        1.7997626923        1.7800258115
 O         -3.9235966438        0.0753076475        1.5552343601
 C         -3.0985062982       -1.0323370218        1.4438040623
 O         -2.9899061715       -1.7023467119        2.4919838201
 H         -0.2078353055       -0.4534453567        1.1193926242
 C          0.3801357726       -0.9843666286        0.3792460058
 C         -0.1802327869       -2.0792713178       -0.2673213590
 C          0.5926633289       -2.7620431483       -1.1971759120
 C          1.8804918823       -2.3416420846       -1.4825166718
 C          2.4249726465       -1.2383907465       -0.8521310701
 C          1.6661673262       -0.5557423918        0.0897978799
 N          2.2061134461        0.5744074815        0.7303579110
 S          3.7074676840        0.4190092935        1.4683538676
 O          3.9398387973       -0.9356822065        1.9133381044
 O          3.7337319512        1.4446470049        2.4886390016
 C          4.8629787791        0.8485837487        0.1841906739
 C          5.8795909291       -0.0249609529       -0.1486715996
 C          6.7739469745        0.3367382539       -1.1443093434
 C          6.6366504442        1.5587161219       -1.7847404627
 C          5.6110997248        2.4254987623       -1.4369688010
 C          4.7144928945        2.0707133299       -0.4418480549
 H          3.9059392417        2.7154996825       -0.1399965927
 H          5.5070752939        3.3746210576       -1.9376983339
 H          7.3328530979        1.8377967896       -2.5598004011
 H          7.5718022495       -0.3354386875       -1.4163042926
 H          5.9428375214       -0.9666908061        0.3727733810
 H          1.5567452962        1.0340244876        1.3522078533
 H          3.4239503171       -0.9031617181       -1.0783331099
 H          2.4671971872       -2.8791192802       -2.2116650843
 H          0.1854451544       -3.6225957916       -1.7018112386
 C         -1.5828160848       -2.4951245665        0.1081988884
 H         -1.5439539256       -2.9367593379        1.1155692151
 C         -2.1881762928       -3.5069795298       -0.8430477634
 C         -1.9555362808       -4.9729768960       -0.6389555779
 C         -3.3012762901       -4.3805087329       -0.3506264506
 H         -4.1190262728       -4.6015563570       -1.0199088570
 H         -3.6014125948       -4.2643541509        0.6810567232
 H         -1.8526218551       -5.6050543309       -1.5080899920
 H         -1.3442938977       -5.2711086491        0.1996068112
 H         -2.2568253653       -3.1326546330       -1.8578166157
 O         -2.1003398218       -0.6257509557       -2.0117298452
