  62
        -98.94486577
 C         -1.9192443310       -0.1401868002        0.0354407204
 C         -2.9188630810       -1.0388322705        0.4791056597
 C         -4.2389210810       -0.4525379007        0.7438913502
 C         -4.4151208510        0.8710762894        0.5765961412
 C         -5.7195008310        1.5904314593        0.7599836318
 C         -6.5077187910        1.6560364303       -0.5557358881
 C         -6.6275464911        0.3107078308       -1.2717422291
 H         -7.2269606111        0.4727997815       -2.1702190890
 H         -5.6355315611       -0.0070582390       -1.6008934294
 C         -7.2621545911       -0.8032596598       -0.4273910499
 H         -7.8005502810       -0.3681119005        0.4153128704
 H         -7.9939630911       -1.3335511794       -1.0404096403
 C         -6.2722356310       -1.8487781202        0.0893298293
 H         -5.6659080211       -2.2202195496       -0.7406303410
 H         -6.8441366810       -2.6942425905        0.4808297787
 C         -5.3286836910       -1.3797437511        1.2039654196
 H         -5.9085197110       -0.9240248917        2.0091293999
 H         -4.8211630810       -2.2630449814        1.6026706289
 H         -7.5043248710        2.0465461401       -0.3418598378
 H         -6.0045796611        2.3570225207       -1.2258804976
 H         -6.3060186710        1.0803977587        1.5217349814
 H         -5.5072475510        2.6064557290        1.0969102425
 O         -3.4244536910        1.7066567497        0.1721272818
 C         -2.1548914410        1.2259578199       -0.1170722286
 O         -1.3481038910        2.0992189002       -0.4879569180
 O         -2.7140160110       -2.2706017307        0.6506486888
 C         -0.5359414210       -0.6839203500       -0.2762279801
 C          0.4899320890       -0.0059873606        0.5968496004
 C          0.3050764390       -0.0292947817        1.9779773504
 C          1.1977584491        0.5999474177        2.8219910008
 C          2.3038757891        1.2554957281        2.3086105112
 C          2.5027278190        1.2791544091        0.9343798413
 C          1.6017373290        0.6448027297        0.0875547208
 H          1.7742801089        0.6967575905       -0.9738040891
 N          3.6088481490        1.9501025495        0.3880698817
 S          4.5289675289        1.2345264204       -0.8091379088
 O          5.7521236089        2.0058459604       -0.8343060483
 O          3.7910125989        1.1699061813       -2.0439427089
 C          4.8577801090       -0.4053656501       -0.1905957201
 C          4.0703437089       -1.4622377598       -0.5990023008
 C          4.2974044789       -2.7153651802       -0.0516722718
 C          5.3006915990       -2.8885480709        0.8889636881
 C          6.0866294690       -1.8168799112        1.2853718388
 C          5.8620181590       -0.5613434808        0.7452970198
 H          6.4567781690        0.2953587090        1.0180244304
 H          6.8696066090       -1.9562305317        2.0132473187
 H          5.4722412590       -3.8654316912        1.3128098273
 H          3.6886327589       -3.5502157000       -0.3604822024
 H          3.3031970189       -1.2897199592       -1.3354237407
 H          4.2001549390        2.4008030190        1.0709784220
 H          2.9993582591        1.7556910276        2.9652998716
 H          1.0350666391        0.5797569469        3.8890230908
 H         -0.5603983709       -0.5398152620        2.3779834600
 H         -0.5751353210       -1.7477771402        0.0015288991
 C         -0.2483900711       -0.5794066989       -1.7584607900
 C          0.6585212489       -1.5707935284       -2.4215999208
 C         -0.8163814111       -1.6115961482       -2.6842603008
 H         -1.1809493512       -1.2933616275       -3.6494820305
 H         -1.3915699311       -2.4118685285       -2.2417191313
 H          1.3147547288       -1.2243660678       -3.2066044806
 H          1.0753280389       -2.3526335189       -1.8044942914
 H         -0.2306071011        0.4457524314       -2.1122901993
