  62
        -98.93712122
 C         -1.5612124151       -1.5470865897       -0.3662122318
 C         -1.5375880354       -0.2124403074       -0.8388728260
 C         -2.8383365854        0.4784786312       -0.8918059254
 C         -3.9487419915       -0.1702333540       -0.4992318455
 C         -5.3255047989        0.4247194164       -0.4123885310
 C         -5.4398699245        1.3028384144        0.8501000044
 C         -5.6429684016        2.7913559733        0.5666533194
 H         -5.4930500679        3.3264293909        1.5068713252
 H         -6.6764469113        2.9558372705        0.2545571848
 C         -4.7288056082        3.3976818658       -0.5023343285
 H         -4.7995928608        4.4829297221       -0.4029649999
 H         -5.1097182255        3.1505605877       -1.4944075350
 C         -3.2504025954        2.9934688896       -0.4306662787
 H         -2.9782220676        2.6916659841        0.5814573010
 H         -2.6452128011        3.8712515597       -0.6677894469
 C         -2.8396151453        1.8866247320       -1.4194473026
 H         -1.8070446062        2.0696825202       -1.7310567163
 H         -3.4690638462        1.9423652790       -2.3121248704
 H         -4.5346695554        1.1659779280        1.4460392081
 H         -6.2734878481        0.9547296237        1.4619193644
 H         -6.0341929005       -0.4022792972       -0.3650191124
 H         -5.5308030757        1.0100469392       -1.3058331170
 O         -3.9318089708       -1.4525212720       -0.0515237383
 C         -2.7484911725       -2.1642951825        0.0357244594
 O         -2.8824693734       -3.3249048461        0.4733173545
 O         -0.4969036539        0.3836180419       -1.2184202616
 C         -0.2925966116       -2.3753553759       -0.2153523118
 C          0.4309462269       -1.9044156581        1.0243712517
 C          0.0230415805       -2.3835826658        2.2668587007
 C          0.6443697679       -1.9561239540        3.4244464010
 C          1.6746758065       -1.0333722272        3.3667809680
 C          2.0820251830       -0.5401027158        2.1333700048
 C          1.4677591978       -0.9859471795        0.9703800135
 H          1.7889445160       -0.5939397614        0.0218646250
 N          3.1342463992        0.3847620340        2.0400203598
 S          2.9444564574        1.7495531594        1.0746632427
 O          3.8988340535        2.6956186759        1.6188871293
 O          1.5697630712        2.1872531943        1.0475810515
 C          3.5148866275        1.2369920966       -0.5308505292
 C          4.8537352544        0.9205388842       -0.6568314923
 C          5.3331117953        0.5153847758       -1.8915073660
 C          4.4693185110        0.4357135746       -2.9739284350
 C          3.1293277619        0.7597500845       -2.8299717865
 C          2.6413821494        1.1676542414       -1.5973547080
 H          1.5987942588        1.4017312669       -1.4459624589
 H          2.4538454774        0.6929758425       -3.6683441774
 H          4.8408306229        0.1180425323       -3.9356106380
 H          6.3745353812        0.2617728981       -2.0070973838
 H          5.4899487137        1.0044725746        0.2084305055
 H          3.5441027265        0.6363022033        2.9285407513
 H          2.1584222528       -0.6943350940        4.2707354267
 H          0.3218176537       -2.3391809995        4.3811177845
 H         -0.7953071052       -3.0890205308        2.3099980719
 H         -0.6329962104       -3.4030241546       -0.0277436668
 C          0.5716617201       -2.3703982277       -1.4585342055
 C          1.6911928262       -3.3602302512       -1.5679524580
 C          0.4724561778       -3.5085385290       -2.4271464143
 H          0.5543275531       -3.2942245960       -3.4820466930
 H         -0.2214617348       -4.3040790282       -2.1968820454
 H          2.6135702930       -3.0445251838       -2.0306472430
 H          1.8224621458       -4.0544733452       -0.7516294557
 H          0.7292191883       -1.3836412887       -1.8727579553
