  62
        -98.94037575
 C         -1.1371509439       -1.0257663034        0.4933615681
 C         -2.0176280688       -0.7854671414       -0.5875688672
 C         -2.9946572675        0.2952340538       -0.3906100064
 C         -2.9688155416        1.0213677426        0.7411920175
 C         -3.8415523496        2.2024959254        1.0756803313
 C         -5.3486046329        1.9207754459        1.2291968377
 C         -6.1674407402        2.1472638830       -0.0476031869
 H         -7.1128742791        2.6226855958        0.2214193559
 H         -5.6329042575        2.8521989350       -0.6856966773
 C         -6.5115327471        0.8893298811       -0.8507405820
 H         -7.3363611683        0.3677717897       -0.3600040093
 H         -6.8621504070        1.2070665506       -1.8350015377
 C         -5.3756306811       -0.1177127630       -1.0312646242
 H         -5.6883054642       -0.8546282418       -1.7736003836
 H         -5.2182914510       -0.6651192911       -0.0989937033
 C         -4.0296957750        0.4997006284       -1.4583387504
 H         -3.6547613167       -0.0021549286       -2.3528738134
 H         -4.1438945112        1.5593714806       -1.6833322627
 H         -5.4924543130        0.9065512218        1.6006054757
 H         -5.7192716442        2.6022230825        1.9965718365
 H         -3.4526507824        2.5911210184        2.0194120821
 H         -3.6897326978        2.9721727077        0.3149011454
 O         -2.0726141174        0.7868864065        1.7388153355
 C         -1.1384502801       -0.2295442036        1.6377123447
 O         -0.3690281897       -0.3209390461        2.6173679083
 H          0.7976429385        0.3053878068       -0.3090532688
 C          1.2612790533       -0.4649687435       -0.9052076243
 C          0.8975204191       -1.7903452281       -0.7145928143
 C          1.4854693304       -2.7591261786       -1.5186630284
 C          2.4018031387       -2.3970626152       -2.4911616039
 C          2.7689460083       -1.0752555127       -2.6690245905
 C          2.1892785708       -0.0995013130       -1.8662117701
 N          2.5248782678        1.2554586707       -2.0056414577
 S          2.5905611840        2.2385632683       -0.6548717325
 O          1.2622494795        2.5500291230       -0.1882820359
 O          3.3875966792        3.3692610374       -1.0822098418
 C          3.4994333979        1.2906853159        0.5528098644
 C          4.8524239906        1.1196651924        0.3257489474
 C          5.5923253065        0.3509619994        1.2079602466
 C          4.9685171986       -0.2386805486        2.2975836545
 C          3.6126776547       -0.0535751847        2.5146151274
 C          2.8665992299        0.7185309111        1.6367989896
 H          1.8094359844        0.8695131182        1.7921452068
 H          3.1169386389       -0.5063683384        3.3587200203
 H          5.5410443521       -0.8428227239        2.9835109062
 H          6.6486142161        0.2115756506        1.0439573223
 H          5.3014720313        1.6052191122       -0.5254016569
 H          3.2755240949        1.4477626732       -2.6521603769
 H          3.4864555662       -0.7972703445       -3.4254426413
 H          2.8438460106       -3.1579817682       -3.1160622732
 H          1.2206234250       -3.7956304201       -1.3887897432
 C         -0.0823069796       -2.1109458694        0.3899925453
 H          0.4728671388       -2.0833126702        1.3402626777
 C         -0.7284601520       -3.4733081089        0.2428328308
 C         -0.0775829238       -4.6886013055        0.8300301146
 C         -1.3174534347       -4.1266878120        1.4559150959
 H         -2.2444841548       -4.6699154634        1.3506042191
 H         -1.2251421275       -3.6005253486        2.3953383421
 H         -0.1555254653       -5.6236810466        0.2960660234
 H          0.8567749118       -4.5534495277        1.3535474778
 H         -1.2659873025       -3.5782517638       -0.6922100967
 O         -1.9870204126       -1.4309153077       -1.6680435823
