  62
        -98.94593765
 C          2.1126754382        1.4917812922        0.0060360083
 C          1.8340031232        0.3742410527       -0.8173763708
 C          2.8964763958       -0.6396364270       -0.8941867552
 C          4.0488623578       -0.4418725755       -0.2286001236
 C          5.1912212462       -1.4141941955       -0.1832280292
 C          5.0614293131       -2.3688062549        1.0120731900
 C          3.6810491656       -3.0129187668        1.1417331278
 H          3.7180025623       -3.6889319463        1.9987137765
 H          2.9464805980       -2.2386425537        1.3751441080
 C          3.2224734195       -3.7872317853       -0.1017461378
 H          4.0813275521       -4.0128188676       -0.7349825613
 H          2.7974406100       -4.7407166837        0.2183116483
 C          2.1511394980       -3.0761977433       -0.9306983629
 H          1.7431320986       -3.7966710880       -1.6446269040
 H          1.3360385962       -2.7566470196       -0.2767920139
 C          2.6285352603       -1.8582513647       -1.7317149610
 H          1.8281490735       -1.5746445786       -2.4213037981
 H          3.5087106533       -2.1242609123       -2.3205731285
 H          5.8212532877       -3.1466800623        0.9161142217
 H          5.2647398416       -1.8072621693        1.9269557852
 H          6.1199167752       -0.8492231017       -0.0861277275
 H          5.2181870696       -1.9799703178       -1.1124329366
 O          4.2893592676        0.6599093501        0.5279138806
 C          3.3241756477        1.6409807986        0.6811986170
 O          3.6581923740        2.5814700885        1.4301823870
 O          0.7608193932        0.2281871396       -1.4570381496
 C          1.0687716582        2.5808894600        0.1852354168
 C         -0.1919414786        1.9623070710        0.7371545119
 C         -0.1293162444        1.3101908070        1.9665336217
 C         -1.2456484143        0.6965439200        2.5006232185
 C         -2.4486587168        0.7085346496        1.8153478314
 C         -2.5183921129        1.3476182995        0.5854782285
 C         -1.3985234641        1.9799220600        0.0584245777
 H         -1.4732387713        2.4712315584       -0.8985879065
 N         -3.7274006761        1.3460453976       -0.1279915866
 S         -4.6271449997       -0.0630240857       -0.1616958312
 O         -5.3737558686       -0.0009321911       -1.3992044216
 O         -5.4208953803       -0.1565771361        1.0394267960
 C         -3.4534785550       -1.4070773942       -0.2090897608
 C         -2.4646459570       -1.3931206418       -1.1721690762
 C         -1.5559369562       -2.4371819921       -1.2144375727
 C         -1.6521388644       -3.4749136515       -0.3003712910
 C         -2.6536995448       -3.4773005870        0.6581091975
 C         -3.5633021056       -2.4334264269        0.7073991137
 H         -4.3531859284       -2.3914942749        1.4399729014
 H         -2.7257889708       -4.2855523102        1.3681008026
 H         -0.9404030896       -4.2848539048       -0.3357203302
 H         -0.7691370546       -2.4210957187       -1.9508382820
 H         -2.3973564118       -0.5751291938       -1.8706268996
 H         -3.6655585494        1.7638820205       -1.0447214516
 H         -3.3303523323        0.2362077944        2.2171631562
 H         -1.1811303393        0.1996769300        3.4567699123
 H          0.8143267142        1.2893010923        2.4952485879
 H          1.4724458928        3.2692067089        0.9409589823
 C          0.8724787679        3.3417695759       -1.1089792369
 C          0.3154755423        4.7327053081       -1.0829667480
 C          1.7621443426        4.5099292548       -1.4046293458
 H          2.0946361356        4.6608009339       -2.4207963722
 H          2.5011495960        4.7721207733       -0.6615161491
 H         -0.3438333618        5.0420392753       -1.8800941529
 H          0.0689883452        5.1536612322       -0.1199507984
 H          0.6075266497        2.6984549744       -1.9401245647
