  62
        -98.94123744
 C         -1.8370898964        0.9292668487       -0.7120921707
 C         -2.0928488363       -0.4603955237       -0.8635400382
 C         -3.4811741186       -0.8936634651       -0.6800290808
 C         -4.4315783503        0.0194696764       -0.4115898886
 C         -5.9000991644       -0.2535114676       -0.2306916266
 C         -6.2815394297       -0.7004712989        1.1871155741
 C         -5.8549631941       -2.1216000609        1.5569699195
 H         -6.3710916108       -2.3796101070        2.4838979792
 H         -6.1999567761       -2.8145690806        0.7889238240
 C         -4.3442849444       -2.2939496434        1.7689693532
 H         -4.1682321762       -2.8652254554        2.6832499224
 H         -3.8818705273       -1.3142776424        1.9110890020
 C         -3.6220534849       -3.0213207133        0.6346627208
 H         -2.5559922823       -3.0527600109        0.8734804597
 H         -3.9842608516       -4.0497375371        0.5701760698
 C         -3.7794613057       -2.3612332476       -0.7414380979
 H         -3.0604895086       -2.8180808533       -1.4255776771
 H         -4.7852127942       -2.5287919342       -1.1263603490
 H         -5.8547544007        0.0062051906        1.9026808293
 H         -7.3692562590       -0.6376704686        1.2671191392
 H         -6.2243420297       -1.0057080613       -0.9504100227
 H         -6.4190907728        0.6825880388       -0.4478595130
 O         -4.1530810299        1.3423268831       -0.2899783447
 C         -2.8576591699        1.8295312391       -0.4052450821
 O         -2.7795288904        3.0602429405       -0.2170517655
 O         -1.1974577995       -1.2988224136       -1.1505140982
 C         -0.3964529370        1.3677191859       -0.8987265815
 C          0.3439162803        1.5021852156        0.4107728697
 C         -0.1082491577        2.3360249774        1.4276070459
 C          0.6172997789        2.4642194171        2.5978782162
 C          1.8148353475        1.7905861841        2.7652762422
 C          2.2780331449        0.9597452487        1.7524915111
 C          1.5305560881        0.8077418593        0.5933365285
 H          1.8845543273        0.1436180518       -0.1799690445
 N          3.4867499521        0.2621001415        1.8827830672
 S          4.5046515458        0.1132347949        0.5602120141
 O          5.8137481673       -0.1092806641        1.1356948292
 O          4.3835867058        1.2420065099       -0.3318267123
 C          3.9704270344       -1.3785388344       -0.2497505378
 C          3.6536410786       -1.3527886728       -1.5932190030
 C          3.2545468044       -2.5270610713       -2.2113948078
 C          3.1819580375       -3.7012308514       -1.4784272030
 C          3.5082453693       -3.7117428368       -0.1306521765
 C          3.9079066051       -2.5409410996        0.4927226965
 H          4.1729645837       -2.5100919357        1.5363979632
 H          3.4499075162       -4.6279649019        0.4346189138
 H          2.8678982642       -4.6128932377       -1.9616850521
 H          2.9982502380       -2.5199558904       -3.2588012006
 H          3.7197269510       -0.4166732025       -2.1259358998
 H          3.9991142249        0.4520353533        2.7316918872
 H          2.3875174702        1.9072365849        3.6729942420
 H          0.2542182780        3.1094655201        3.3838482817
 H         -1.0287556564        2.8822960463        1.2899322205
 H          0.0793850818        0.5496317602       -1.4570301596
 C         -0.2356434360        2.6468254203       -1.7002076012
 C          1.1221845348        2.9990464428       -2.2280441145
 C          0.0399255865        2.5662374972       -3.1701155607
 H         -0.4047685832        3.3058377480       -3.8190292605
 H          0.1111979756        1.5833044695       -3.6125222481
 H          1.4176136327        4.0373122948       -2.2280378063
 H          1.9363848963        2.3193247326       -2.0218110888
 H         -0.8634725309        3.4553385252       -1.3492889073
