  62
        -98.93903971
 C         -2.3260589661       -0.8117282491        0.6281900546
 C         -3.4293423590       -0.9680714528       -0.2467382686
 C         -4.6055523481       -0.1333462423        0.0454747400
 C         -4.5845199456        0.7020144102        1.0987476644
 C         -5.6900624138        1.6456173019        1.4721801486
 C         -5.4988867252        3.0167249101        0.8087567909
 C         -5.2146881331        2.9426363740       -0.6915025463
 H         -5.1289492316        3.9682947974       -1.0568846111
 H         -4.2445197567        2.4647219887       -0.8469920495
 C         -6.2830683264        2.1976133088       -1.5038985916
 H         -7.2055054980        2.1277590747       -0.9263609572
 H         -6.5060804556        2.7767042768       -2.4024485085
 C         -5.8677445675        0.7998234830       -1.9663303116
 H         -6.5961430457        0.4562276135       -2.7055844995
 H         -4.8959709078        0.8522733762       -2.4635844432
 C         -5.7902761523       -0.2698793259       -0.8697451417
 H         -6.7196103443       -0.2785718382       -0.2969983657
 H         -5.6789962301       -1.2409805678       -1.3605096072
 H         -4.6582686272        3.5203915726        1.2917788266
 H         -6.3971630886        3.6120422958        0.9822911834
 H         -6.6439058378        1.2153324483        1.1733617713
 H         -5.6817909593        1.7717483906        2.5561325082
 O         -3.5155148001        0.8137543176        1.9284272816
 C         -2.3687265854        0.0715409755        1.7119523833
 O         -1.4671036298        0.2759428764        2.5510963516
 H          1.3472778881       -0.3410754610        0.7927446709
 C          1.0600626637       -0.4023622055       -0.2473111751
 C         -0.1462964316       -0.9898513136       -0.6004219145
 C         -0.5023054273       -1.0339505505       -1.9446602357
 C          0.3400721600       -0.5091558124       -2.9073815963
 C          1.5557314374        0.0497065689       -2.5548356286
 C          1.9151782141        0.1092255008       -1.2133720867
 N          3.1304021541        0.6944960859       -0.8231834996
 S          3.9349071026        0.0619956338        0.5191680195
 O          3.9003596752       -1.3828265042        0.4820380407
 O          3.4144840355        0.6839192159        1.7109549294
 C          5.5909335968        0.6474132930        0.2109198325
 C          5.9040589275        1.9539004247        0.5362416659
 C          7.1819729308        2.4213499142        0.2738194453
 C          8.1201803932        1.5798632044       -0.3057953283
 C          7.7919941558        0.2707507726       -0.6244945693
 C          6.5150867315       -0.2028587822       -0.3662658140
 H          6.2168659016       -1.2147453239       -0.5889079593
 H          8.5245460443       -0.3819391128       -1.0712619564
 H          9.1143910480        1.9461365327       -0.5072869318
 H          7.4415744709        3.4375660815        0.5231662713
 H          5.1453080351        2.5666409785        0.9948004790
 H          3.7579289076        0.8544814762       -1.5994248567
 H          2.2185948374        0.4445862279       -3.3098408312
 H          0.0526072961       -0.5481485066       -3.9473102532
 H         -1.4478259108       -1.4729729725       -2.2224278817
 C         -1.0254004438       -1.5844073102        0.4746317866
 H         -0.4966976852       -1.4634733410        1.4306208479
 C         -1.2326431191       -3.0678105634        0.2317928996
 C         -0.0811326022       -3.9980299508        0.4616536542
 C         -1.2514247180       -4.0062564249        1.3982406710
 H         -1.9275872496       -4.8475974212        1.3717676061
 H         -1.1191532825       -3.5824847460        2.3836202835
 H          0.0466114912       -4.8348668930       -0.2077844815
 H          0.8478597766       -3.5670685984        0.8072581029
 H         -1.8997858933       -3.2820695503       -0.5922683465
 O         -3.4588217472       -1.7585705010       -1.2265306432
