  62
        -98.94334611
 C         -2.5571222836       -0.0390998679       -0.1485212901
 C         -2.3989805097       -1.1740044044       -0.9824883419
 C         -1.8895095696       -2.3919533285       -0.3414624324
 C         -1.6072395412       -2.3715537215        0.9733123642
 C         -1.0516752387       -3.5286721657        1.7515929540
 C          0.4808383208       -3.4854964586        1.8038032331
 C          1.1483808875       -3.3079891951        0.4395895796
 H          0.9456306901       -2.2988176647        0.0714611442
 H          2.2279681251       -3.3681869752        0.5995399117
 C          0.7324227076       -4.3351067915       -0.6222657877
 H          1.6275577817       -4.6629466801       -1.1547889539
 H          0.2985813808       -5.2129092916       -0.1412290650
 C         -0.2379888237       -3.7979064887       -1.6762759399
 H         -0.2571795736       -4.5014596687       -2.5132516779
 H          0.1362803368       -2.8429029213       -2.0566286716
 C         -1.6868262492       -3.6002336623       -1.2112506752
 H         -2.3034730182       -3.4361544720       -2.0999632857
 H         -2.0399593673       -4.5034192506       -0.7087090394
 H          0.8348758860       -4.4082335800        2.2684247887
 H          0.7814661484       -2.6434113678        2.4317214126
 H         -1.3854232886       -4.4590628623        1.2955969015
 H         -1.4402568784       -3.4723418367        2.7702229172
 O         -1.7781512642       -1.2704355335        1.7458260910
 C         -2.1910369772       -0.0638344732        1.1994353075
 O         -2.2111181725        0.8756390963        2.0167310163
 O         -2.6687124947       -1.1655102821       -2.2154666018
 C         -2.9358866542        1.2742023855       -0.8156318237
 C         -1.8683268169        2.2867683224       -0.4831205416
 C         -2.1025436229        3.5370323787        0.0708478950
 C         -1.0387039416        4.3594674299        0.4038086025
 C          0.2679806034        3.9473642086        0.2180151242
 C          0.5106675027        2.7000208531       -0.3472731603
 C         -0.5547142430        1.9020855320       -0.7209416862
 H         -0.3576707070        0.9347425739       -1.1609878563
 N          1.8193051092        2.2214584883       -0.5537640177
 S          2.0544582446        0.5663477962       -0.2744061852
 O          1.6940807009       -0.1592295454       -1.4676445001
 O          1.3996519158        0.1686649857        0.9500468744
 C          3.8257945228        0.5227194094       -0.0728137708
 C          4.6222361638        0.5233946237       -1.2022925882
 C          5.9996713379        0.5240805002       -1.0503762125
 C          6.5545886285        0.5241410905        0.2208676355
 C          5.7425589142        0.5204714480        1.3450035050
 C          4.3639462349        0.5217571304        1.1998886132
 H          3.6916630927        0.5107267673        2.0431177637
 H          6.1760380082        0.5164963546        2.3320799742
 H          7.6268688923        0.5238598460        0.3364837850
 H          6.6339252011        0.5235302521       -1.9220189515
 H          4.1440210250        0.5129923815       -2.1677854073
 H          2.5130369053        2.7722197303       -0.0652774213
 H          1.0929335015        4.5779499161        0.5133924625
 H         -1.2315146649        5.3274165068        0.8413519913
 H         -3.1125081877        3.8554686309        0.2711374666
 H         -2.8639726539        1.0533902755       -1.8949785875
 C         -4.3552630052        1.7590567100       -0.5731072871
 C         -5.4452089280        0.7974449212       -0.2068908510
 C         -4.9771199403        1.8138409265        0.7888096564
 H         -5.6314249479        2.6430796153        1.0157414381
 H         -4.3799151339        1.4837245370        1.6232843401
 H         -6.4171473157        0.9244558595       -0.6596108308
 H         -5.1649177494       -0.2345234775       -0.0508315993
 H         -4.6305274336        2.5522712251       -1.2619909131
