  62
        -98.93371580
 C          0.4894664343        1.8396694401        0.0258278340
 C          1.0455964207        0.7792908472       -0.7318898839
 C          2.3187247471        0.2352950727       -0.2253172748
 C          2.7999806902        0.6407665924        0.9614920169
 C          4.0327608499        0.1278579612        1.6569229899
 C          5.3776835455        0.4485939867        0.9758998485
 C          5.8909760881       -0.6511856919        0.0383765526
 H          6.9728264125       -0.7368408300        0.1592197282
 H          5.4646209827       -1.6052441309        0.3496258023
 C          5.6265408881       -0.4355080220       -1.4549284860
 H          5.8136803556       -1.3813327141       -1.9678074355
 H          6.3417879835        0.2939967478       -1.8418932177
 C          4.2264542986        0.0579291311       -1.8219495051
 H          4.1098059503       -0.0212277825       -2.9047902391
 H          4.1370064033        1.1198372692       -1.5798400538
 C          3.0777483147       -0.6966251410       -1.1236385765
 H          2.3646471561       -1.0663139526       -1.8628268253
 H          3.4652710819       -1.5439548994       -0.5629053281
 H          6.1110021093        0.5849870916        1.7724215177
 H          5.2995140760        1.3968842030        0.4446785579
 H          3.9403598807       -0.9524421145        1.7841541317
 H          4.0190769330        0.5859046852        2.6477699549
 O          2.1673258964        1.5795407800        1.7186247821
 C          1.0431230508        2.2328848847        1.2478807047
 O          0.6226605709        3.1342108487        2.0012550666
 O          0.5367907654        0.2958342079       -1.7747290768
 C         -0.7563503310        2.6104522102       -0.3820925144
 C         -1.9843471284        2.0224943643        0.2630595007
 C         -2.9304441482        2.8360941381        0.8752537550
 C         -4.0529041842        2.2842845837        1.4664561454
 C         -4.2514233407        0.9157175640        1.4561616839
 C         -3.3055490957        0.0927806451        0.8539926127
 C         -2.1805172970        0.6490856346        0.2629015318
 H         -1.4557457548        0.0101058098       -0.2168686899
 N         -3.4527915725       -1.2986456622        0.8763267867
 S         -2.7956900048       -2.2698944968       -0.3100677525
 O         -2.9185333661       -1.6721799491       -1.6180576865
 O         -3.4746441069       -3.5393064162       -0.1429608312
 C         -1.0900180258       -2.5003210835        0.1472454823
 C         -0.6622659294       -2.2183231736        1.4285510398
 C          0.6499701229       -2.5008576960        1.7733191098
 C          1.5011716227       -3.0745263774        0.8432277053
 C          1.0581424812       -3.3481585221       -0.4410768020
 C         -0.2482031309       -3.0549648283       -0.7955077134
 H         -0.6295040556       -3.2394728669       -1.7871570096
 H          1.7239094365       -3.7867178850       -1.1669760072
 H          2.5153662318       -3.3131053155        1.1228186122
 H          0.9999015598       -2.2748004038        2.7681166563
 H         -1.3452413484       -1.7761027839        2.1352257325
 H         -4.3270813014       -1.6505602904        1.2354689725
 H         -5.1255162737        0.4824419501        1.9175869926
 H         -4.7812495467        2.9249973536        1.9396874609
 H         -2.7733064875        3.9043665123        0.8982771812
 H         -0.6233068938        3.6223001681        0.0354139927
 C         -0.9071362000        2.7661237552       -1.8883044918
 C         -1.8487135979        1.9510506471       -2.7170193643
 C         -2.1420916082        3.3971597013       -2.4612058113
 H         -2.0341365121        4.0986188151       -3.2747449092
 H         -2.9461091749        3.6299192041       -1.7793746867
 H         -1.5139284526        1.6516291497       -3.6987061116
 H         -2.4505245937        1.1986887360       -2.2302611435
 H          0.0352702053        3.0291113899       -2.3588426015
