  62
        -98.94088239
 C         -1.8483868335       -0.7316958427        0.5563660078
 C         -2.3086971482        0.0183354759       -0.5545077508
 C         -3.4416972492        0.9173121717       -0.2877290800
 C         -3.9223369252        1.0457641299        0.9611719698
 C         -5.0602471649        1.9323847828        1.3884449840
 C         -6.4472213081        1.3087589287        1.1802579791
 C         -6.9102748550        1.2214754851       -0.2746354097
 H         -7.9728869293        0.9712512446       -0.2574459565
 H         -6.8144208114        2.2009323886       -0.7443566744
 C         -6.1698640313        0.1711421644       -1.1144842428
 H         -5.6568286031       -0.5296909268       -0.4518089997
 H         -6.8927959810       -0.4080659022       -1.6931909336
 C         -5.1573037056        0.7492019939       -2.1033816059
 H         -5.6783097625        1.3484307267       -2.8532907870
 H         -4.6680441204       -0.0815491469       -2.6184122670
 C         -4.0675485442        1.6149359570       -1.4572931857
 H         -4.4817498675        2.5757292844       -1.1521352896
 H         -3.2827551000        1.7907951458       -2.1973814686
 H         -7.1649974381        1.9207980722        1.7313113553
 H         -6.4520259816        0.3107437675        1.6247871094
 H         -4.9239973379        2.1211556235        2.4556229027
 H         -5.0037782293        2.8834117061        0.8579167620
 O         -3.3905469067        0.3762129498        2.0189580452
 C         -2.3592351991       -0.5326149570        1.8412985525
 O         -1.9756494385       -1.0798957292        2.8951093322
 O         -1.8142322311       -0.0473165965       -1.7081579232
 C         -0.7166272099       -1.7367786044        0.4262557812
 C          0.4196676868       -1.1316618932       -0.3615224903
 C          0.9328976400       -1.6805598415       -1.5283703993
 C          1.9742869230       -1.0585094301       -2.1956672077
 C          2.5293328704        0.1122077150       -1.7144818515
 C          2.0308688668        0.6634356213       -0.5402787365
 C          0.9934502121        0.0352720681        0.1303150058
 H          0.6009761182        0.4692562215        1.0425003078
 N          2.5938819440        1.8479696904       -0.0360523884
 S          4.2603419252        1.9897091056       -0.0284551220
 O          4.5572386454        2.8965208548        1.0586172580
 O          4.7204431646        2.4001237000       -1.3317709138
 C          4.8705309560        0.3534527385        0.3380901142
 C          4.4993652861       -0.2253081639        1.5356711076
 C          4.9366166506       -1.5075760659        1.8245170864
 C          5.7336325767       -2.1862104374        0.9150332289
 C          6.1022521514       -1.5894089803       -0.2803641964
 C          5.6663621232       -0.3074036347       -0.5751046119
 H          5.9273964660        0.1932567208       -1.4931559846
 H          6.7237011327       -2.1185222052       -0.9845777130
 H          6.0691454553       -3.1858434690        1.1417788920
 H          4.6509436723       -1.9727066312        2.7544306292
 H          3.8829405178        0.3304789776        2.2242829849
 H          2.1917081171        2.1587438517        0.8354196090
 H          3.3253932174        0.6184981859       -2.2358811766
 H          2.3541891856       -1.4880646349       -3.1099350190
 H          0.4991210698       -2.5795472588       -1.9334269551
 H         -0.3598022746       -1.8942024341        1.4576398721
 C         -1.1541922225       -3.0994989576       -0.0904430547
 C         -2.5504514981       -3.5967637486        0.1338581697
 C         -2.0894002950       -3.2573200082       -1.2500354772
 H         -1.9140922827       -4.0675104245       -1.9428002721
 H         -2.4649525358       -2.3600427835       -1.7149872226
 H         -2.6898439342       -4.6356771584        0.3926948500
 H         -3.2475644996       -2.9298578557        0.6208631962
 H         -0.3643707720       -3.8384274164        0.0018595651
