  62
        -98.94323561
 C         -1.8877432047       -1.3658815235       -0.2035721556
 C         -2.1931799222       -0.2206439515       -0.9794052672
 C         -3.5879127897        0.2399774156       -0.9122001883
 C         -4.4852090111       -0.4270704900       -0.1655681596
 C         -5.9407025332       -0.0809294108       -0.0064422509
 C         -6.2120141546        0.9919260181        1.0572414891
 C         -5.7995327413        2.4129243223        0.6704666949
 H         -6.2281091155        2.6636466778       -0.3003600091
 H         -6.2434719655        3.0864416420        1.4062281548
 C         -4.2825763437        2.6480064218        0.6409447906
 H         -4.0484161139        3.5843924738        1.1524598008
 H         -3.7776422458        1.8497881251        1.1902844034
 C         -3.6819523102        2.7373729223       -0.7621886990
 H         -2.5998986926        2.8627526045       -0.6658044095
 H         -4.0774554226        3.6168475118       -1.2756026036
 C         -3.9388850030        1.5038879276       -1.6374588094
 H         -4.9789735748        1.4819640090       -1.9621721171
 H         -3.2968722409        1.5708799942       -2.5194289313
 H         -7.2864884090        0.9902804072        1.2542716872
 H         -5.7039139807        0.7045126253        1.9806145168
 H         -6.3477861477        0.2431185354       -0.9645514750
 H         -6.4478788798       -1.0000347881        0.2945990692
 O         -4.1591033281       -1.5412588226        0.5414614863
 C         -2.8596310163       -2.0177210887        0.5610826512
 O         -2.6979303168       -3.0247446865        1.2795360625
 H          0.8854279141        0.3947979322       -0.6808430647
 C          0.9630551376        0.0961659062        0.3517224548
 C          0.3341689098       -1.0558422051        0.8024078447
 C          0.4095385185       -1.3739857089        2.1560634636
 C          1.0968590935       -0.5600275606        3.0362707550
 C          1.7360113995        0.5796417222        2.5809828888
 C          1.6624552822        0.9106499998        1.2330076126
 N          2.2913095226        2.0723795546        0.7515810740
 S          3.2875712252        1.9748501040       -0.5898247396
 O          4.0662577328        3.1939372324       -0.5479196149
 O          2.5165906506        1.7510262908       -1.7838675997
 C          4.3363302076        0.5727673932       -0.2520506234
 C          3.9498087249       -0.6818315316       -0.6781279887
 C          4.7356654554       -1.7728116977       -0.3413372377
 C          5.8870958213       -1.5915366457        0.4089448061
 C          6.2644141894       -0.3234433803        0.8247511910
 C          5.4798231951        0.7702318299        0.4974990075
 H          5.7390438023        1.7740391889        0.7930460106
 H          7.1631827835       -0.1851306935        1.4038401782
 H          6.4948254769       -2.4440081795        0.6683108797
 H          4.4416438680       -2.7584886144       -0.6649489579
 H          3.0504207801       -0.7843790574       -1.2622606358
 H          2.7364667337        2.6245718928        1.4708490217
 H          2.2764283951        1.2169582364        3.2645440220
 H          1.1421390403       -0.8176759912        4.0834843361
 H         -0.0986956987       -2.2588424352        2.5122407325
 C         -0.4793175233       -1.9372258109       -0.1149400067
 H         -0.5904962234       -2.9144454924        0.3741267577
 C          0.1557292420       -2.1561109091       -1.4719049371
 C          1.2592825584       -3.1613872875       -1.6027788725
 C         -0.0933106754       -3.4539116897       -2.1780354896
 H         -0.2137864367       -3.4415138223       -3.2509745191
 H         -0.7160938515       -4.1818566966       -1.6781940689
 H          1.5554679434       -3.6954053231       -0.7124297674
 H          2.0679513943       -2.9530462935       -2.2870095620
 H          0.2047264176       -1.2643057247       -2.0831945349
 O         -1.3670403447        0.3955134651       -1.7014094149
