  62
        -98.94303619
 C         -1.9686539432       -0.5874521409        0.8294756389
 C         -2.8789697758       -1.1693483020       -0.0870934730
 C         -4.2557677999       -0.6582379750       -0.0307630763
 C         -4.5890804029        0.2925705457        0.8592019245
 C         -5.9538157052        0.8985331101        1.0435540921
 C         -6.2636095282        2.0453014823        0.0715370696
 C         -6.5226543253        1.6207995630       -1.3746329598
 H         -7.2812223451        0.8375982671       -1.3914638926
 H         -6.9379851906        2.4875867608       -1.8926441307
 C         -5.2728268947        1.1469415758       -2.1296425040
 H         -4.3778155423        1.4800482716       -1.5986706999
 H         -5.2477947818        1.6102740903       -3.1185449355
 C         -5.1923353931       -0.3656524049       -2.3355192573
 H         -6.0125380426       -0.6918684292       -2.9788160482
 H         -4.2527239683       -0.5916101345       -2.8455719156
 C         -5.2352777965       -1.1823898121       -1.0375460748
 H         -6.2434672595       -1.1802369567       -0.6242510995
 H         -4.9535599085       -2.2119452034       -1.2707351072
 H         -5.4370918677        2.7593735421        0.0996758159
 H         -7.1554058524        2.5552238451        0.4434424295
 H         -6.7151934124        0.1237791469        0.9489073884
 H         -5.9834251352        1.2927720620        2.0617050249
 O         -3.6908554068        0.8147398882        1.7365684898
 C         -2.3696868880        0.4026750770        1.7319451638
 O         -1.6565540293        0.9779862706        2.5801178689
 H          1.4446766225        0.8658881562        1.2153616624
 C          1.2734582572        0.6235338025        0.1769410884
 C          0.3034491029       -0.3056786574       -0.1710402563
 C          0.0937578913       -0.5813600720       -1.5190491506
 C          0.8361214970        0.0652567800       -2.4894228945
 C          1.8136433561        0.9801476990       -2.1378923154
 C          2.0327014611        1.2613202543       -0.7953705128
 N          3.0221967301        2.1842925084       -0.4037001287
 S          4.2053216480        1.6712518084        0.6641805669
 O          3.6257031444        1.4024368748        1.9545210680
 O          5.2216928249        2.6982432144        0.6146077253
 C          4.8242125325        0.1660068611       -0.0659873951
 C          5.8888995496        0.2407626758       -0.9429282688
 C          6.3218999223       -0.9151243239       -1.5721126794
 C          5.6774745522       -2.1179577627       -1.3247900209
 C          4.6083051623       -2.1758073414       -0.4441412039
 C          4.1753200922       -1.0244596281        0.1941439869
 H          3.3492497454       -1.0327190522        0.8859281260
 H          4.1049152583       -3.1095327017       -0.2516128200
 H          6.0105573182       -3.0166859462       -1.8194414398
 H          7.1555599059       -0.8741936228       -2.2544962663
 H          6.3624227321        1.1961029901       -1.1021264668
 H          3.4527476802        2.6699322401       -1.1783066721
 H          2.3970625118        1.4804798498       -2.8961775732
 H          0.6579339941       -0.1511506415       -3.5317645208
 H         -0.6700629609       -1.2910806097       -1.7963051560
 C         -0.5020589576       -0.9845106016        0.9111658237
 H         -0.1481190323       -0.5997670322        1.8777061723
 C         -0.2928079025       -2.4863194110        0.8912605678
 C          0.9174494641       -3.0613544993        1.5603990586
 C         -0.4394391284       -3.2578152629        2.1663793977
 H         -0.8892927795       -4.2383421644        2.1265248403
 H         -0.6839954850       -2.7021546686        3.0606556925
 H          1.4031685561       -3.9111410905        1.1063281723
 H          1.5917016187       -2.3772602532        2.0548874914
 H         -0.6434403850       -2.9601197934       -0.0154799835
 O         -2.5863428819       -2.0698237906       -0.9159939544
