  62
        -98.94004451
 C         -2.6685881098       -1.0579729002        0.2278126796
 C         -2.3559022300       -0.2573815900       -0.8964651904
 C         -2.8455168600        1.1317660100       -0.8651564902
 C         -3.6010867598        1.5472676399        0.1688593099
 C         -4.2634177098        2.8835831798        0.4305420401
 C         -3.7480186999        4.1514284099       -0.2481848298
 C         -2.3169528198        4.5461190799        0.1156668701
 H         -2.2899781097        4.8428600597        1.1672311101
 H         -2.0429531899        5.4177652499       -0.4826046299
 C         -1.2610695699        3.4603546299       -0.0843731702
 H         -1.4420196898        2.6390352398        0.6135639198
 H         -0.2836674298        3.8792822998        0.1742218498
 C         -1.1571788100        2.8925238000       -1.4997941402
 H         -0.2578595100        2.2691535700       -1.5307261404
 H         -1.0200517801        3.7088639501       -2.2117531002
 C         -2.3473506101        2.0280732901       -1.9597611802
 H         -1.9964617602        1.3727688601       -2.7619741903
 H         -3.1527027301        2.6390976001       -2.3606053100
 H         -4.4053803698        4.9634140899        0.0743432204
 H         -3.8504275500        4.0714180500       -1.3262638498
 H         -4.2295527497        3.0206040797        1.5157124201
 H         -5.3190200098        2.7577444999        0.1657245602
 O         -3.9440251097        0.7100041698        1.1920926699
 C         -3.4469793297       -0.5807774903        1.2778794197
 O         -3.7632994096       -1.1867016504        2.3224228697
 O         -1.6916197501       -0.6774447300       -1.8784408905
 C         -2.0746966798       -2.4502398002        0.3425732893
 C         -0.5737030498       -2.3533507202        0.1988205892
 C          0.1804985101       -3.2167640301       -0.5842075110
 C          1.5465909300       -3.0327352501       -0.7149262111
 C          2.1892677201       -1.9905080301       -0.0725723611
 C          1.4467980902       -1.1307378602        0.7261299091
 C          0.0835979302       -1.3276911002        0.8676724192
 H         -0.4911302497       -0.6481490703        1.4874615993
 N          2.0917354803       -0.0579681203        1.3799708191
 S          2.7602134702        1.1115296498        0.3653013391
 O          2.8109221003        2.3190180797        1.1618921792
 O          2.0531974900        1.1989980699       -0.8905321008
 C          4.4169975502        0.5183286798        0.0978523089
 C          4.8408092800        0.2118364000       -1.1800971912
 C          6.1332718000       -0.2556599600       -1.3623930914
 C          6.9729304201       -0.4077018501       -0.2695393315
 C          6.5321808303       -0.0928272803        1.0075126086
 C          5.2419987703        0.3759728297        1.1964993488
 H          4.8595669304        0.6365023196        2.1692415588
 H          7.1883308204       -0.2120825404        1.8545608885
 H          7.9772517501       -0.7733278201       -0.4142701017
 H          6.4776093399       -0.5005842899       -2.3542699715
 H          4.1488756299        0.3395971100       -1.9973409211
 H          1.4961371904        0.4009156496        2.0556312592
 H          3.2498181001       -1.8345053201       -0.1852190412
 H          2.1174523600       -3.7063937100       -1.3355193613
 H         -0.3043042300       -4.0246927700       -1.1073002610
 H         -2.3077223897       -2.8023585103        1.3583873893
 C         -2.7172439100       -3.3864837201       -0.6593129907
 C         -2.8379454899       -4.8495827701       -0.3585953108
 C         -4.0560108599       -3.9772773801       -0.3382084806
 H         -4.7789848000       -4.0778420500       -1.1336759105
 H         -4.4916705198       -3.7227767402        0.6172573095
 H         -2.7287473900       -5.5535549800       -1.1696924509
 H         -2.4513979098       -5.1996203402        0.5865847891
 H         -2.5354718201       -3.0831969800       -1.6840213407
