  62
        -98.93476384
 C         -2.3760169190       -1.3484864848        0.1856370727
 C         -2.2606458395        0.0258218468       -0.1324908003
 C         -3.3571372457        0.9114141035        0.3217504022
 C         -4.3810972007        0.3843565190        1.0164629257
 C         -5.6135803683        1.0715217870        1.5421261104
 C         -6.6398791509        1.3766028320        0.4399139508
 C         -6.0512196928        1.9676282859       -0.8380834778
 H         -6.8592622341        2.0478438827       -1.5699470047
 H         -5.3124507695        1.2755874052       -1.2463108213
 C         -5.4210164766        3.3499510086       -0.6847508647
 H         -6.1694523261        4.0445325360       -0.2970790947
 H         -5.1390954180        3.6902194443       -1.6845301260
 C         -4.1789254790        3.4247595432        0.2067348706
 H         -4.4471218392        3.4212634390        1.2598251004
 H         -3.6968929130        4.3877776733        0.0139128731
 C         -3.1311011687        2.3516379755       -0.0716649581
 H         -2.1919972575        2.6435129473        0.4152904613
 H         -2.9034685892        2.3438090350       -1.1441407505
 H         -7.3898308699        2.0570291405        0.8466265406
 H         -7.1401396771        0.4418284792        0.1752663262
 H         -5.3382994120        1.9763620260        2.0756795192
 H         -6.0690631500        0.3870797349        2.2612733780
 O         -4.4402402274       -0.9444966472        1.3174564641
 C         -3.4554090518       -1.8297108290        0.9327903824
 O         -3.6464882504       -3.0029680911        1.3105515852
 O         -1.3026818977        0.5240899623       -0.7804464072
 C         -1.3152870115       -2.3742805142       -0.1830202782
 C          0.0412611505       -1.8679695172        0.2369896292
 C          0.4162866966       -1.9544509003        1.5741063520
 C          1.6317900181       -1.4516958841        1.9987903725
 C          2.4909342825       -0.8405456896        1.1021379734
 C          2.1148091774       -0.7294040626       -0.2293362057
 C          0.9063840091       -1.2624338182       -0.6592688076
 H          0.6172377105       -1.1614366481       -1.6936630819
 N          2.9707648744       -0.0973790177       -1.1459877284
 S          3.7454379451        1.3201135123       -0.6944315968
 O          2.9949424053        2.0698237343        0.2856070672
 O          4.0405068435        1.9987701775       -1.9380183778
 C          5.2743733810        0.7449299560        0.0190763203
 C          6.0469194850       -0.1350288239       -0.7134148732
 C          7.2433912195       -0.5826304365       -0.1766474904
 C          7.6474030096       -0.1432791752        1.0752958266
 C          6.8629455054        0.7432042394        1.7968738940
 C          5.6645962578        1.1941468277        1.2654303114
 H          5.0197649125        1.8794979347        1.7926705071
 H          7.1782994408        1.0845228311        2.7698321031
 H          8.5788362408       -0.4936119020        1.4911963567
 H          7.8560987059       -1.2720009578       -0.7349429161
 H          5.6995378855       -0.4502421006       -1.6829961204
 H          2.5709214326       -0.0067979122       -2.0690060610
 H          3.4321339580       -0.4303823201        1.4297286070
 H          1.9123451993       -1.5300188614        3.0382629261
 H         -0.2644998939       -2.4120407572        2.2791510383
 H         -1.5537581625       -3.2547968943        0.4345101841
 C         -1.3539411747       -2.8412354220       -1.6306478198
 C         -2.6673406101       -3.0940642977       -2.3075234734
 C         -1.7906777979       -1.9704408961       -2.7682620718
 H         -1.2797262602       -2.0767731378       -3.7145610417
 H         -2.0885833280       -0.9579145467       -2.5476014579
 H         -2.7656474243       -3.9652469525       -2.9373230890
 H         -3.5630891642       -2.8498653764       -1.7546610558
 H         -0.5581021886       -3.5493156192       -1.8417219967
