  62
        -98.94284001
 C         -0.7029288605       -1.3970080493        0.5749810329
 C         -1.1845982207       -0.7447921787       -0.5822515189
 C         -2.2266096209        0.2784313938       -0.3714150585
 C         -2.5554592876        0.6329989318        0.8844150251
 C         -3.5347126083        1.6644579017        1.4070692472
 C         -4.5601006036        2.3044523237        0.4747606185
 C         -5.6502197236        1.3525311140       -0.0202778387
 H         -6.3144433955        1.1248074958        0.8173043290
 H         -6.2398100622        1.8708267832       -0.7793293468
 C         -5.1630658531        0.0222014032       -0.5902543913
 H         -6.0438708961       -0.5688504210       -0.8556531733
 H         -4.6261313429       -0.5327019780        0.1818907667
 C         -4.2814828211        0.1244391578       -1.8330544885
 H         -4.8088083995        0.6790526268       -2.6115998611
 H         -4.1119577329       -0.8907629146       -2.2017553829
 C         -2.9075139728        0.7788524198       -1.6125569704
 H         -2.2575593484        0.5005359957       -2.4467823223
 H         -2.9922263523        1.8608386057       -1.6067063251
 H         -4.0619501580        2.7849660860       -0.3619604226
 H         -5.0507498997        3.0962473630        1.0474665706
 H         -2.9236519034        2.4565320467        1.8546965892
 H         -4.0604670484        1.1831304013        2.2381704982
 O         -1.9449073530        0.0761122494        1.9745377080
 C         -1.0647098901       -0.9838837222        1.8545927930
 O         -0.6775492636       -1.4599635434        2.9422232819
 O         -0.7829968161       -1.0126418809       -1.7435263830
 C          0.2432497437       -2.5761496339        0.4470325862
 C          1.5280527290       -2.1566433491       -0.2230007484
 C          2.1071903694       -2.8529945565       -1.2758315010
 C          3.3030407968       -2.4232813633       -1.8244190418
 C          3.9441638863       -1.2999454254       -1.3366986651
 C          3.3767461228       -0.6019623771       -0.2757178393
 C          2.1777820506       -1.0312112034        0.2694092680
 H          1.7481919416       -0.4900934923        1.1007674047
 N          4.0152829881        0.5261387843        0.2594613241
 S          3.1386754828        1.7739240116        0.9224072457
 O          4.0599187646        2.8923796981        0.9158560996
 O          2.6229809066        1.4051881141        2.2175848618
 C          1.7995117396        2.1343346633       -0.1993142737
 C          2.0199533884        2.0995966220       -1.5615983092
 C          0.9995795799        2.4840345624       -2.4155086384
 C         -0.2102894426        2.9154026693       -1.8968161204
 C         -0.4173659069        2.9436601001       -0.5271505709
 C          0.5934491159        2.5428160995        0.3308142582
 H          0.4688527845        2.5342159536        1.4029326965
 H         -1.3579319958        3.2784158575       -0.1205758583
 H         -0.9959884526        3.2299022271       -2.5650568977
 H          1.1529612002        2.4506908111       -3.4819404184
 H          2.9738812425        1.7757311997       -1.9440756781
 H          4.8289904625        0.8489518083       -0.2423737772
 H          4.8778947663       -0.9668476616       -1.7630715042
 H          3.7409268784       -2.9704981518       -2.6451237416
 H          1.6225900513       -3.7311758554       -1.6686494538
 H          0.4893267162       -2.8769063282        1.4766693647
 C         -0.4574879085       -3.7278308205       -0.2443309757
 C         -0.0622024197       -5.1415634879        0.0551186585
 C         -1.3677819651       -4.6056000193        0.5588396151
 H         -2.2818021755       -4.9563131621        0.1035457668
 H         -1.4617698192       -4.3887233877        1.6134688024
 H         -0.0829126902       -5.8650830942       -0.7457953421
 H          0.7301330786       -5.2978825036        0.7715744740
 H         -0.7645417935       -3.4827233098       -1.2543829758
