  62
        -98.93460196
 C         -2.6424971385       -0.5383902519       -0.3007103390
 C         -2.0726355750       -1.2631720896        0.7727846122
 C         -1.2362307338       -2.4329886052        0.4193486861
 C         -1.1061975729       -2.7814296504       -0.8725209751
 C         -0.3100557597       -3.9096623192       -1.4774039695
 C          1.1958275226       -3.6240534812       -1.5194135265
 C          1.7894863172       -3.1484923623       -0.1969259286
 H          2.8567457686       -2.9710855532       -0.3596626518
 H          1.3478271113       -2.1858048620        0.0676271287
 C          1.6493989671       -4.1226024892        0.9713998212
 H          2.2558280215       -3.7241211554        1.7884892752
 H          2.0679195373       -5.0899483655        0.6845726335
 C          0.2296700962       -4.3363087883        1.5077380282
 H          0.3226330376       -4.7536494736        2.5144187401
 H         -0.3170284416       -5.0694107576        0.9194023547
 C         -0.5943029789       -3.0592940048        1.6332403197
 H         -1.4155140521       -3.2332274938        2.3386672104
 H          0.0184771109       -2.2725171404        2.0912195362
 H          1.3733618789       -2.8411729528       -2.2611394002
 H          1.7070688891       -4.5316353690       -1.8478020200
 H         -0.6704128588       -4.0239158684       -2.5026477705
 H         -0.5069641251       -4.8383466984       -0.9497729461
 O         -1.7316277477       -2.0906062668       -1.8712629471
 C         -2.4468960247       -0.9395310153       -1.6231299792
 O         -2.8889215861       -0.3766484155       -2.6478470633
 O         -2.2354784320       -0.9734694257        1.9867737944
 C         -3.3595778324        0.7936878816       -0.1390525660
 C         -2.3521011848        1.8988300644       -0.3485529534
 C         -2.6458673964        3.0289513027       -1.1023661261
 C         -1.6763428199        3.9895988702       -1.3341626458
 C         -0.3877658635        3.8229240415       -0.8583790835
 C         -0.0851652061        2.6947031360       -0.1052022572
 C         -1.0749765313        1.7667800239        0.1748160815
 H         -0.8231250674        0.9066514601        0.7756350723
 N          1.2129675701        2.4402890506        0.3719284152
 S          1.7112548164        0.8202632489        0.2480379532
 O          1.2017819166        0.2475297412       -0.9763326487
 O          1.3839500301        0.1413373914        1.4755968776
 C          3.4801045305        1.0269606417        0.1454398359
 C          4.0932635186        1.0070953221       -1.0927379775
 C          5.4635312175        1.2037656566       -1.1655376892
 C          6.1922308878        1.4201021254       -0.0056155929
 C          5.5628857353        1.4358222263        1.2304228255
 C          4.1936042474        1.2377253315        1.3103882891
 H          3.6615098144        1.2309177241        2.2473410323
 H          6.1329426666        1.6004957622        2.1304193793
 H          7.2579524216        1.5741703358       -0.0654047004
 H          5.9555844397        1.1873679830       -2.1246143084
 H          3.4854425532        0.8275367319       -1.9652426562
 H          1.9032779009        3.0698390346       -0.0157519193
 H          0.3781659482        4.5519510370       -1.0753852735
 H         -1.9182427584        4.8635650020       -1.9197568387
 H         -3.6314085756        3.1382737074       -1.5307959684
 H         -4.0826133479        0.8480314683       -0.9697933359
 C         -4.1399959245        0.9355768075        1.1577346242
 C         -3.6620193805        1.7668959857        2.3060909556
 C         -4.8258159902        2.2293790775        1.4851112199
 H         -5.8128750660        2.1915035853        1.9201830320
 H         -4.6655806539        3.0632548710        0.8189906118
 H         -3.8366807441        1.3905091027        3.3021310700
 H         -2.7195687606        2.2818682870        2.1984987516
 H         -4.6699831128        0.0241305055        1.4119621556
