  62
        -98.94509791
 C         -2.5601400925        0.0233208612       -0.3684780908
 C         -2.2244031810       -0.5916508452        0.8618938542
 C         -1.9324167427       -2.0305087995        0.8002635645
 C         -2.0116750930       -2.6701998982       -0.3802782597
 C         -1.7690094577       -4.1382513773       -0.5819819046
 C         -0.3154522486       -4.4403826744       -0.9664108629
 C          0.7219235732       -3.7864459078       -0.0537975465
 H          1.7044169313       -4.1346779799       -0.3820083083
 H          0.7064917813       -2.7042267653       -0.2009571903
 C          0.5468864507       -4.0913331946        1.4402223452
 H         -0.0650445371       -4.9851724092        1.5706566004
 H          1.5295460303       -4.3042238966        1.8660692289
 C         -0.0491480392       -2.9381208130        2.2508764418
 H          0.4644983192       -2.0101779852        1.9855283442
 H          0.1366580565       -3.1322306063        3.3108669404
 C         -1.5580708889       -2.7151134493        2.0839091867
 H         -2.0872653825       -3.6652811113        2.1872143275
 H         -1.8897130813       -2.0469943053        2.8842101512
 H         -0.1441765297       -4.0845253195       -1.9853317741
 H         -0.1792782160       -5.5240567375       -0.9571370417
 H         -2.4237703185       -4.4808838478       -1.3858680124
 H         -2.0289120006       -4.6666083658        0.3335861107
 O         -2.3281269908       -2.0429066643       -1.5439730234
 C         -2.5820981373       -0.6814068406       -1.5696924013
 O         -2.8262060006       -0.2244680502       -2.7076182290
 O         -2.1895133098        0.0260309032        1.9586615341
 C         -2.8642201526        1.5089262043       -0.4124740378
 C         -1.7150014432        2.3083039147        0.1546564837
 C         -1.8944079733        3.4939728200        0.8558303115
 C         -0.8008540582        4.1944675601        1.3362552494
 C          0.4845960934        3.7244461441        1.1455962810
 C          0.6742436349        2.5337548585        0.4501031919
 C         -0.4194751297        1.8576371455       -0.0621561878
 H         -0.2619431217        0.9500489163       -0.6269802792
 N          1.9643094024        1.9985729665        0.3032045488
 S          2.2529815995        0.6167004019       -0.6001834904
 O          1.9927906347        0.8548455673       -2.0055786425
 O          1.5602017741       -0.4897877710        0.0062736675
 C          4.0074979645        0.4531620278       -0.3333117325
 C          4.4493736171       -0.2349330017        0.7804073074
 C          5.8124736889       -0.3353363455        1.0095273075
 C          6.7064181705        0.2520932938        0.1266807764
 C          6.2486169446        0.9371041920       -0.9888519067
 C          4.8865238054        1.0408147401       -1.2233851051
 H          4.4853398001        1.5519673831       -2.0838202548
 H          6.9458739885        1.3890395841       -1.6757276775
 H          7.7667152421        0.1728258390        0.3074926745
 H          6.1713802320       -0.8704322904        1.8738039595
 H          3.7164165166       -0.6806411916        1.4329039901
 H          2.7023623593        2.6839534663        0.2431480383
 H          1.3346670594        4.2615344758        1.5363284873
 H         -0.9540533156        5.1172165026        1.8750799438
 H         -2.8904219398        3.8688841653        1.0266792097
 H         -2.9664524929        1.7674045962       -1.4780126175
 C         -4.1802032395        1.7904413050        0.2866498171
 C         -5.0886624249        2.8760893654       -0.2047828093
 C         -5.4575208475        1.4389886180       -0.4131932743
 H         -6.2661653780        1.0209274982        0.1671435022
 H         -5.3754479194        1.0262164948       -1.4085984161
 H         -5.6500549585        3.4459104620        0.5203016211
 H         -4.7704930487        3.4441251918       -1.0660755078
 H         -4.1267967442        1.6074078686        1.3537984778
