  62
        -98.94167341
 C          2.3789522947        1.2334045722        0.1695699887
 C          3.3035070350        0.5550699759        1.0041056791
 C          4.0990133391       -0.5002974195        0.3678138194
 C          3.9037772493       -0.7893185810       -0.9313366124
 C          4.6531819447       -1.8195499339       -1.7321055846
 C          4.1014347441       -3.2446651866       -1.5894223702
 C          4.3820997391       -3.9192721026       -0.2459820984
 H          4.1352556453       -4.9765533046       -0.3609116115
 H          5.4478190958       -3.8554001381       -0.0242550419
 C          3.5748072236       -3.3497427523        0.9290574742
 H          2.7303851318       -2.7724480639        0.5435030840
 H          3.1563325755       -4.1710853668        1.5155004662
 C          4.3819863809       -2.4729357152        1.8868681978
 H          5.1476364908       -3.0773544730        2.3779613339
 H          3.7058541882       -2.0946742033        2.6579343858
 C          5.0619632281       -1.2691885097        1.2215045706
 H          5.4178297526       -0.5994682157        2.0082137416
 H          5.9150844824       -1.5990721864        0.6291830594
 H          4.5552829054       -3.8500167838       -2.3774609961
 H          3.0234738525       -3.2220011266       -1.7685131288
 H          5.7067673839       -1.8063308906       -1.4513454407
 H          4.5673050959       -1.5212403672       -2.7792132153
 O          2.9815617935       -0.1424645614       -1.6909006676
 C          2.1800684140        0.8644507201       -1.1622684116
 O          1.3598262066        1.3287357847       -1.9747270931
 O          3.4545880114        0.8184541428        2.2270677589
 C          1.5324900529        2.3248658885        0.8010405632
 C          0.0787325436        2.1090670983        0.4629851909
 C         -0.7019116988        3.0286218323       -0.2235024450
 C         -2.0243285062        2.7425685362       -0.5155109090
 C         -2.5967216614        1.5452926748       -0.1280676963
 C         -1.8232964619        0.6153099398        0.5546457911
 C         -0.5013638201        0.9068979004        0.8505402358
 H          0.1038547085        0.1783640496        1.3777625401
 N         -2.3963330057       -0.6025986418        0.9632774215
 S         -3.2560182789       -1.4983088597       -0.1680079722
 O         -3.2010900870       -2.8606979612        0.3180896800
 O         -2.7725821351       -1.2764808671       -1.5109403814
 C         -4.9227122885       -0.8930118093       -0.0046942754
 C         -5.6003961208       -0.4357563657       -1.1177609151
 C         -6.8994008704        0.0251819315       -0.9688792156
 C         -7.4943148137        0.0197735276        0.2834126695
 C         -6.8008752754       -0.4456100917        1.3908608653
 C         -5.5027285359       -0.9089159595        1.2487825948
 H         -4.9307499750       -1.2811056834        2.0821491868
 H         -7.2667122735       -0.4481072188        2.3630901960
 H         -8.5043796227        0.3805578782        0.3967913571
 H         -7.4395739234        0.3869627897       -1.8289736645
 H         -5.0939109552       -0.4440429681       -2.0699822098
 H         -1.7580486277       -1.1988024781        1.4705048496
 H         -3.6239512855        1.3177862794       -0.3615077708
 H         -2.6178347457        3.4626902439       -1.0578811090
 H         -0.2677781874        3.9570323214       -0.5556723158
 H          1.6525512788        2.1645085385        1.8860898527
 C          2.0177024018        3.7390323709        0.5220747506
 C          3.4671228753        4.0186768793        0.2628647018
 C          2.4634575712        4.1873679289       -0.8361751114
 H          2.2142808899        5.1903816592       -1.1506738709
 H          2.4430246987        3.4626487182       -1.6346414201
 H          3.9059301762        4.9021466525        0.7016299580
 H          4.1392910534        3.1740558264        0.2160227517
 H          1.4902314618        4.4709660434        1.1260653323
