  62
        -98.93856592
 C         -2.3984959057       -1.2326607776       -0.0886721307
 C         -3.4313506936       -0.7455144127        0.7513988169
 C         -4.2922520181        0.3123937636        0.1991186992
 C         -4.0570363498        0.7685648000       -1.0429358893
 C         -4.8182477381        1.8094330814       -1.8257616895
 C         -5.2805985574        3.0655248978       -1.0764203491
 C         -4.3259338149        3.5502795379        0.0244418895
 H         -3.3724645653        3.0231791786       -0.0473945551
 H         -4.1207691581        4.6119507824       -0.1256579139
 C         -4.9011043259        3.3770195095        1.4321887259
 H         -4.3695012689        4.0465947862        2.1125320900
 H         -5.9489899190        3.6846891316        1.4225471901
 C         -4.7984559713        1.9672932469        2.0126840176
 H         -3.7529605885        1.7330702892        2.2312102571
 H         -5.3351588478        1.9556655771        2.9642553210
 C         -5.3517359981        0.8426549219        1.1220783787
 H         -5.6306684416        0.0076871426        1.7704107702
 H         -6.2341044646        1.1685959795        0.5771318432
 H         -5.4021135151        3.8504763558       -1.8248799590
 H         -6.2641653993        2.8909562768       -0.6428245844
 H         -4.1485543428        2.0957712383       -2.6406154464
 H         -5.6869710897        1.3235203890       -2.2798072486
 O         -3.0452800375        0.2794047909       -1.8140252877
 C         -2.1903108086       -0.7152261270       -1.3659098061
 O         -1.3197817163       -1.0389474954       -2.1984610528
 O         -3.6354565658       -1.1875865383        1.9126647647
 C         -1.4831149404       -2.3097951559        0.4719966759
 C         -0.1497443738       -1.6748697771        0.7808359636
 C          0.0609473156       -1.0872762116        2.0248983180
 C          1.2463078873       -0.4329705357        2.3045660443
 C          2.2407785634       -0.3393858268        1.3464181665
 C          2.0320202201       -0.9059022744        0.0966052881
 C          0.8523420815       -1.5856689064       -0.1735137089
 H          0.6958141422       -2.0061761141       -1.1544994712
 N          3.0273952997       -0.7905129827       -0.8922260015
 S          3.6020761859        0.7565097728       -1.2152999779
 O          2.6209936895        1.7694937110       -0.8994589565
 O          4.0696576153        0.7137615981       -2.5838482731
 C          5.0100147894        0.9105858754       -0.1339333005
 C          6.0077040054       -0.0401836248       -0.2268015158
 C          7.1126181003        0.0659911617        0.6026162841
 C          7.2025826851        1.1166874831        1.5036545595
 C          6.1945302721        2.0652471646        1.5821640479
 C          5.0860122603        1.9642946056        0.7556440141
 H          4.2750760291        2.6748083129        0.7846943406
 H          6.2660205178        2.8817705410        2.2826553621
 H          8.0634441145        1.1970592307        2.1484355338
 H          7.8987473737       -0.6694151709        0.5441254098
 H          5.9001763765       -0.8376015126       -0.9428761985
 H          2.7758776400       -1.2499765924       -1.7565971639
 H          3.1626953917        0.1796348534        1.5519781174
 H          1.3971404917        0.0134867131        3.2756798589
 H         -0.7257460318       -1.1358354381        2.7646517700
 H         -1.9432682752       -2.6121483209        1.4221129421
 C         -1.3852073138       -3.5236965933       -0.4277110182
 C         -0.7995076089       -4.7895650573        0.1206017470
 C         -2.2684256442       -4.7043955520       -0.1621605442
 H         -2.6652605253       -5.2491891194       -1.0056856142
 H         -2.9477146463       -4.6421966217        0.6752630184
 H         -0.1850251214       -5.3963215720       -0.5266081761
 H         -0.4806207238       -4.7826778706        1.1518348588
 H         -1.1877821227       -3.2808912545       -1.4643066883
