  62
        -98.93372116
 C          2.2148631874        0.8251493464        0.2146508166
 C          2.4196447951       -0.3440052392        0.9822483757
 C          3.1533097221       -1.4404260655        0.3277067519
 C          3.5416016525       -1.2915813286       -0.9508934340
 C          4.3411790509       -2.2568504359       -1.7814263951
 C          5.8411071727       -1.9249946381       -1.7027846954
 C          6.5837421124       -2.5710231846       -0.5337306906
 H          6.6776217758       -3.6433877804       -0.7173747068
 H          7.5925029132       -2.1520465266       -0.5187046100
 C          5.9457150854       -2.3648007902        0.8426195125
 H          5.6106333254       -1.3307120820        0.9417976978
 H          6.7181662170       -2.5274229855        1.5968257276
 C          4.7763820110       -3.3225119187        1.1156678377
 H          4.9289557758       -3.8127886608        2.0793470611
 H          4.7801813179       -4.1114128161        0.3637647472
 C          3.3882599153       -2.6663788185        1.1678526048
 H          2.6304751850       -3.4150075066        0.9135139926
 H          3.1763702344       -2.3442140728        2.1922351284
 H          6.3208297871       -2.2493650962       -2.6284183251
 H          5.9406134795       -0.8378831197       -1.6473858624
 H          4.1482295950       -3.2811050317       -1.4766883699
 H          4.0099696864       -2.1273405455       -2.8138384154
 O          3.2853979516       -0.1640795160       -1.6691294890
 C          2.6230756929        0.9186170922       -1.1159759066
 O          2.4650383956        1.8760989397       -1.8954750025
 O          2.0075285576       -0.4684084664        2.1686151755
 C          1.4789812141        1.9949246427        0.8445223630
 C          0.1584874038        2.1898673846        0.1396209626
 C         -0.2115037938        3.3663135227       -0.4962766353
 C         -1.4352922802        3.4576982932       -1.1380520386
 C         -2.3116250768        2.3891474304       -1.1570106264
 C         -1.9570962599        1.2105021957       -0.5116320704
 C         -0.7331298892        1.1230028184        0.1340031705
 H         -0.4530994251        0.2062312696        0.6383961454
 N         -2.8316121823        0.1072048299       -0.5340056626
 S         -4.4742316976        0.4171088005       -0.2862790094
 O         -5.0446830298        0.8707708420       -1.5299151499
 O         -4.6486644092        1.2992913451        0.8460127546
 C         -5.0815800632       -1.2136247968        0.0944607466
 C         -5.2584982915       -1.5789043942        1.4153857013
 C         -5.7152027613       -2.8558022906        1.7020714702
 C         -5.9825083080       -3.7412237092        0.6687870888
 C         -5.7994332774       -3.3598818474       -0.6522607596
 C         -5.3447226412       -2.0843058086       -0.9460980066
 H         -5.1975574035       -1.7409651240       -1.9567606673
 H         -6.0109221086       -4.0505899227       -1.4525142734
 H         -6.3387494047       -4.7338770516        0.8946345207
 H         -5.8609106751       -3.1540812601        2.7278243489
 H         -5.0463292286       -0.8549155624        2.1858603114
 H         -2.5101380585       -0.6403933943        0.0660005018
 H         -3.2662424058        2.4526748046       -1.6538446358
 H         -1.7099501783        4.3762838234       -1.6346901365
 H          0.4585146450        4.2099153966       -0.4986146514
 H          1.2662965001        1.6823493473        1.8774566503
 C          2.3491834110        3.2320744977        0.8807974255
 C          2.0725082206        4.3091873310        1.8853855491
 C          3.2778966666        3.4325420733        2.0393816187
 H          4.2527992471        3.8564057730        1.8508084781
 H          3.2709127236        2.6840654093        2.8183701378
 H          2.2206187125        5.3377254042        1.5933596594
 H          1.2450872215        4.1587212785        2.5622807007
 H          2.7053398619        3.5247192118       -0.1000757934
