  62
        -98.94334301
 C         -1.9411067806       -0.8475172695        0.0252661600
 C         -2.2387609505        0.1195521807        1.0131527599
 C         -2.6245478003        1.4441640607        0.5164653998
 C         -2.6299054703        1.6838707605       -0.8074715003
 C         -2.9797477801        2.9895403805       -1.4689313704
 C         -4.4869560001        3.2048653907       -1.6657781404
 C         -5.2730918000        3.5153760909       -0.3913616604
 H         -4.7939715699        4.3399912609        0.1372076095
 H         -6.2626796400        3.8568811310       -0.7011803905
 C         -5.4391662702        2.3206578410        0.5580426397
 H         -5.2264778903        1.3943557910        0.0194359998
 H         -6.4764137802        2.2646716112        0.8956415897
 C         -4.5595628802        2.3769385611        1.8070912997
 H         -4.7304154303        1.4674819612        2.3886954398
 H         -4.8500815601        3.2306625812        2.4232869396
 C         -3.0561697802        2.4749910608        1.5155379997
 H         -2.8036794400        3.4749945708        1.1628629595
 H         -2.5103211202        2.2850747409        2.4434457497
 H         -4.6079132000        4.0436815806       -2.3549740505
 H         -4.9054403502        2.3169665307       -2.1450376603
 H         -2.5624621300        3.8150189205       -0.8914179705
 H         -2.5009250301        2.9766670903       -2.4504051904
 O         -2.2936981404        0.7387363804       -1.7254702802
 C         -1.9524894306       -0.5482855596       -1.3366127400
 O         -1.6881419907       -1.3165025698       -2.2816121499
 H          0.5668712494       -0.6212106898        0.2373670000
 C          0.8066653793       -1.6269810398       -0.0781821599
 C         -0.1752627308       -2.6089300897       -0.0488282398
 C          0.1617786990       -3.8954046798       -0.4516805897
 C          1.4462392890       -4.1811920500       -0.8807917596
 C          2.4185687291       -3.1996991101       -0.9121335398
 C          2.0908895693       -1.9072914200       -0.5143124299
 N          3.0451830694       -0.8797392502       -0.5798303900
 S          2.8988142796        0.4740937999        0.4087306098
 O          2.6813893695        0.0723304901        1.7812861499
 O          1.9235058797        1.3705495800       -0.1618039003
 C          4.5340541097        1.1628206097        0.2300801197
 C          5.5128121396        0.8172758597        1.1431742598
 C          6.7916090897        1.3265620695        0.9811919397
 C          7.0695505098        2.1667994094       -0.0865561804
 C          6.0767579698        2.5064857894       -0.9935883404
 C          4.7958477498        2.0006792696       -0.8371960603
 H          3.9897952798        2.2417873996       -1.5107474704
 H          6.2949972999        3.1626865293       -1.8205954605
 H          8.0653065298        2.5619394992       -0.2109983204
 H          7.5640700297        1.0670424695        1.6869202197
 H          5.2470003495        0.1703166698        1.9636588299
 H          3.9962070893       -1.2158115803       -0.6382618600
 H          3.4185412491       -3.4231392603       -1.2507458097
 H          1.6938066088       -5.1845717501       -1.1924505595
 H         -0.5830937511       -4.6739996997       -0.4317331696
 C         -1.5505882308       -2.2468007595        0.4573321702
 H         -1.5059609408       -2.2103803894        1.5574675302
 C         -2.6200927209       -3.2394790894        0.0461742703
 C         -2.9258461511       -4.4304737592        0.9031599404
 C         -3.8951500609       -3.2903592091        0.8319196103
 H         -4.8241664509       -3.4308339391        0.3001340403
 H         -3.9750922808       -2.6307867890        1.6840164202
 H         -2.3561902811       -4.5516561292        1.8122596504
 H         -3.1933416012       -5.3581298493        0.4199973705
 H         -2.6903498209       -3.3471210395       -1.0306050797
 O         -2.1873828105       -0.1150929092        2.2524397299
