  62
        -98.94053373
 C          2.5731157113       -0.2748290221        0.4746111369
 C          2.1963438352       -0.9073944868       -0.7343772287
 C          1.5095999638       -2.1993560644       -0.6002692417
 C          1.2581166491       -2.6843073635        0.6288662023
 C          0.4281624536       -3.8997961164        0.9293183473
 C         -1.0665822349       -3.5416867751        0.7920066700
 C         -1.7892130029       -4.2767342017       -0.3370643061
 H         -1.9666067053       -5.3105724446       -0.0319092371
 H         -2.7610192920       -3.7953279242       -0.4642317107
 C         -1.0636201734       -4.3010649104       -1.6859557087
 H         -1.7984102484       -4.5988731284       -2.4370355421
 H         -0.2965709033       -5.0774130143       -1.6752423890
 C         -0.4182834720       -2.9804520600       -2.1259397099
 H         -0.5652560472       -2.8711240421       -3.2027407676
 H         -0.9026783710       -2.1282764806       -1.6480497430
 C          1.0982210334       -2.8949800257       -1.8676628546
 H          1.5363349954       -3.8969090843       -1.8956376335
 H          1.5552869933       -2.3082060317       -2.6698465349
 H         -1.1488553735       -2.4629870089        0.6345275131
 H         -1.5810047532       -3.7590999425        1.7300721895
 H          0.6942038136       -4.7076584065        0.2511124077
 H          0.6542217892       -4.2083056443        1.9503892932
 O          1.6621627072       -2.0620799262        1.7683640290
 C          2.3041724946       -0.8359955209        1.7207918114
 O          2.5881023667       -0.3577550350        2.8401040852
 H          0.5580797925        1.1974822449        0.9578650645
 C          0.8135583027        1.9011865726        0.1777573940
 C          2.1393486217        2.0352833928       -0.2159232218
 C          2.4472246966        2.9649550473       -1.1996924885
 C          1.4413395671        3.7057192981       -1.7978534758
 C          0.1169657805        3.5239047137       -1.4453713307
 C         -0.1981544267        2.6112677049       -0.4439212663
 N         -1.5292209237        2.4007812902       -0.0404820037
 S         -1.9554165103        0.8491523689        0.4770092233
 O         -1.6181242046        0.7178898479        1.8734862506
 O         -1.4151246548       -0.1511739780       -0.4136971427
 C         -3.7283011265        0.9310280210        0.3036968930
 C         -4.4484907231        1.6501223491        1.2392392014
 C         -5.8241480498        1.7409873592        1.1000653755
 C         -6.4535900384        1.1141324482        0.0344819962
 C         -5.7181370758        0.3942042857       -0.8947194399
 C         -4.3411733491        0.3013720082       -0.7626030884
 H         -3.7281226613       -0.2507474450       -1.4570089013
 H         -6.2098082562       -0.0948780594       -1.7200780963
 H         -7.5246206036        1.1847976230       -0.0704750468
 H         -6.3992082575        2.2980450678        1.8218811493
 H         -3.9161419616        2.1098445063        2.0555519300
 H         -2.2010313351        2.7687050094       -0.7005771209
 H         -0.6668720828        4.0787600089       -1.9379961165
 H          1.6919111291        4.4194911035       -2.5679654819
 H          3.4706388272        3.0970014933       -1.5106242434
 C          3.1547591427        1.1283483496        0.4399873749
 H          3.2691869155        1.4376567525        1.4897968721
 C          4.5118662442        1.1460035312       -0.2294720907
 C          5.5265120442        2.1809961091        0.1512268359
 C          5.7165209646        0.7552432973        0.5708847062
 H          6.4872394215        0.1717983481        0.0903259053
 H          5.5577524588        0.4987898592        1.6085207896
 H          5.2488434907        2.8978918759        0.9091573699
 H          6.1729857347        2.5766217443       -0.6174460438
 H          4.4688363248        0.8207093670       -1.2622404814
 O          2.4178325390       -0.4133670663       -1.8718507742
