  62
        -98.93692219
 C          1.8760209734        1.6292686967       -0.0468697282
 C          1.5046651285        0.3719244782       -0.5827576309
 C          2.5799013583       -0.6383896721       -0.6818621469
 C          3.8161822321       -0.3316300239       -0.2555064817
 C          5.0294677242       -1.2198269519       -0.2169834690
 C          5.1470540049       -1.9228920497        1.1463492726
 C          4.3922148520       -3.2469885103        1.2591623556
 H          4.8994931960       -4.0010011453        0.6534770518
 H          4.4553484101       -3.5682430775        2.3014838447
 C          2.9188736927       -3.1975798781        0.8467318125
 H          2.4179295477       -4.0568968471        1.2965256311
 H          2.4521124589       -2.2994318482        1.2553005367
 C          2.7196989045       -3.2419633101       -0.6751278729
 H          2.0152487992       -4.0374736673       -0.9256375586
 H          3.6625954560       -3.5081540129       -1.1519227918
 C          2.1707691043       -1.9505795662       -1.2941703094
 H          2.4250481661       -1.9300565957       -2.3595002243
 H          1.0776350831       -1.9518817186       -1.2330376385
 H          6.2022291590       -2.1174584496        1.3494164432
 H          4.7908184324       -1.2292048497        1.9124579389
 H          5.0120496789       -1.9377711821       -1.0312465103
 H          5.8948960747       -0.5660576499       -0.3452708797
 O          4.1231426444        0.8834000532        0.2792947521
 C          3.1747526942        1.8783439956        0.4062465707
 O          3.6001938759        2.9262711676        0.9329213338
 H         -1.5577942708        2.2022973603       -0.9863232223
 C         -1.5297306799        1.9914411210        0.0711663994
 C         -0.3699509802        2.2343001859        0.7887004531
 C         -0.3452024860        1.9215725848        2.1440527512
 C         -1.4578965896        1.3855581442        2.7653392404
 C         -2.6136992090        1.1401782953        2.0451175255
 C         -2.6411620665        1.4329102766        0.6878297081
 N         -3.8042471307        1.1748433979       -0.0620868044
 S         -4.5049447491       -0.3424376379        0.0190244965
 O         -5.4495042097       -0.3727385038       -1.0752663608
 O         -5.0575234539       -0.5369261081        1.3368535688
 C         -3.2007330311       -1.5218329671       -0.2732031434
 C         -2.9371676527       -1.8994052063       -1.5742018164
 C         -1.9240055517       -2.8113848940       -1.8156190479
 C         -1.1883398125       -3.3186488881       -0.7564199854
 C         -1.4540734552       -2.9173693313        0.5428365058
 C         -2.4714555758       -2.0109561805        0.7911521413
 H         -2.7145360508       -1.6860916157        1.7893859434
 H         -0.8698780433       -3.3053687956        1.3621012114
 H         -0.4040712139       -4.0352246980       -0.9443887425
 H         -1.7070378517       -3.1195418028       -2.8259542097
 H         -3.5389052024       -1.4877362602       -2.3686396533
 H         -3.7180686480        1.4515046997       -1.0298132064
 H         -3.4885400329        0.7162029762        2.5111527257
 H         -1.4261571966        1.1538420526        3.8194617350
 H          0.5634645187        2.0974903948        2.7041190690
 C          0.8802982982        2.7639308214        0.1344529335
 H          1.3664529431        3.4559876933        0.8406074994
 C          0.5994783871        3.5638641487       -1.1290873824
 C          1.7032887249        3.8655336629       -2.0972525582
 C          0.5838633415        2.9543688291       -2.4974055065
 H         -0.1413624918        3.3209468102       -3.2097907884
 H          0.7840580684        1.8983095801       -2.5831613650
 H          1.7504367274        4.8512406655       -2.5350649408
 H          2.6716134524        3.4301253247       -1.8967133171
 H         -0.1118781417        4.3639040097       -0.9456991416
 O          0.3428186367        0.0834350019       -0.9685699904
