  62
        -98.93803839
 C         -1.8075462928       -1.0851699478        0.2194469408
 C         -2.2620934732       -0.0396464950       -0.6161918609
 C         -3.7213717890        0.0582415751       -0.8083203690
 C         -4.5311663380       -0.8330644315       -0.2064636464
 C         -6.0355369418       -1.0032713638       -0.2538945619
 C         -6.9326170573        0.1126150970       -0.7834008672
 C         -6.9587641835        1.3763173432        0.0757354899
 H         -7.5489546859        2.1320863053       -0.4471422777
 H         -7.4684211144        1.1476407109        1.0151246315
 C         -5.5943438874        1.9659857520        0.4245797511
 H         -5.7616572418        2.8572956835        1.0354423474
 H         -5.0340270521        1.2574009433        1.0379261990
 C         -4.7333820822        2.3769398500       -0.7685268016
 H         -3.8678313037        2.9198742183       -0.3785834192
 H         -5.2947208333        3.0592793343       -1.4098711386
 C         -4.1993232273        1.2197163189       -1.6307826408
 H         -4.9359040600        0.8976290058       -2.3630327402
 H         -3.3269323154        1.5843716372       -2.1813515905
 H         -6.6678262861        0.3550212724       -1.8083599263
 H         -7.9486316710       -0.2909300730       -0.8063952081
 H         -6.2138446229       -1.9030270762       -0.8530996782
 H         -6.3381548680       -1.2500742801        0.7686815516
 O         -4.0397389597       -1.8404767951        0.5740200542
 C         -2.6859003476       -1.9862404280        0.8170274787
 O         -2.3966338336       -2.9357706135        1.5727066527
 H          2.0301349207       -0.0011545769       -0.2055969308
 C          1.4848422673        0.5200026013        0.5627647663
 C          0.2691769894        0.0285094771        1.0130666322
 C         -0.4091089466        0.7329034158        2.0044526376
 C          0.0982180005        1.9173128597        2.5012580122
 C          1.2988112650        2.4189221059        2.0308880508
 C          1.9968001744        1.7119953463        1.0587433573
 N          3.2402884896        2.1714315036        0.6178822879
 S          4.0250157330        1.6265736906       -0.7416500599
 O          5.1547325325        2.5230061657       -0.8725504333
 O          3.1590748610        1.5401026566       -1.8938348367
 C          4.6195734872        0.0063331282       -0.2976740677
 C          4.7686722350       -0.9360552967       -1.2958276282
 C          5.2710385742       -2.1866768926       -0.9721715438
 C          5.6130141119       -2.4733515941        0.3400378456
 C          5.4592224369       -1.5160371764        1.3308525457
 C          4.9627523548       -0.2619514649        1.0124492532
 H          4.8315321001        0.5009901447        1.7613292613
 H          5.7245828999       -1.7423735257        2.3510464916
 H          6.0001565318       -3.4482915469        0.5907146570
 H          5.3914210325       -2.9317636606       -1.7424503813
 H          4.4788400609       -0.6745734294       -2.3015020152
 H          3.5119991118        3.0977271977        0.9064401831
 H          1.6917938135        3.3492959463        2.4109659184
 H         -0.4474838120        2.4593752831        3.2590622291
 H         -1.3508883183        0.3453442308        2.3692511582
 C         -0.3235988947       -1.2552973529        0.4858098126
 H         -0.2423808168       -2.0199215881        1.2728560952
 C          0.3687519350       -1.7680131771       -0.7605535835
 C          1.5692408337       -2.6578118511       -0.6491081767
 C          0.2569691495       -3.2226477909       -1.1011438139
 H          0.1425288488       -3.5023273520       -2.1376643480
 H         -0.2976648021       -3.8474566426       -0.4160865180
 H          2.3588743374       -2.5480497989       -1.3769853089
 H          1.9165350878       -2.9092709382        0.3415341550
 H          0.3331664860       -1.0563910088       -1.5786797335
 O         -1.4897317986        0.7784330309       -1.1817503366
