  62
        -98.94300863
 C         -0.8732494301       -1.7440040457        0.0572468576
 C         -1.7683435125       -1.1832278121        1.0002435322
 C         -2.9974131036       -0.6010298786        0.4483975872
 C         -3.1814041847       -0.5733628815       -0.8845506423
 C         -4.4111228504       -0.0827878124       -1.6012095058
 C         -4.4862838132        1.4385389977       -1.7856495433
 C         -4.8040724475        2.2311385011       -0.5176212793
 H         -5.0614803100        3.2452370263       -0.8290564948
 H         -5.6849782066        1.8066676475       -0.0351622149
 C         -3.6438889077        2.3020885741        0.4839799424
 H         -3.5364063543        3.3291349165        0.8379803737
 H         -2.7134957557        2.0312269203       -0.0194638963
 C         -3.8080094791        1.4170815723        1.7185937535
 H         -2.9054021862        1.5051329941        2.3285983100
 H         -4.6532802809        1.7681697073        2.3149854094
 C         -4.0207599872       -0.0683931498        1.4066910642
 H         -3.9211748129       -0.6310630516        2.3385553535
 H         -5.0239361262       -0.2277728190        1.0103850862
 H         -3.5413655383        1.7872163725       -2.2076729577
 H         -5.2718253883        1.6359767467       -2.5186776297
 H         -5.2996752023       -0.4280722022       -1.0705734454
 H         -4.3956421361       -0.5490877695       -2.5887132750
 O         -2.2556815359       -1.0480756008       -1.7605381027
 C         -1.1027175331       -1.6812106545       -1.3167256224
 O         -0.3843448232       -2.1331240140       -2.2278666369
 O         -1.5645116176       -1.1951375458        2.2441861954
 C          0.3227212274       -2.5285270065        0.5651277714
 C          1.5952445716       -2.1653107264       -0.1566837625
 C          2.4130992162       -3.1126896528       -0.7597920646
 C          3.5826904788       -2.7322105935       -1.3923587793
 C          3.9745655932       -1.4079305148       -1.4113576948
 C          3.1711698502       -0.4512376955       -0.8005712566
 C          1.9869465309       -0.8313642257       -0.1894996887
 H          1.3628620356       -0.0817409980        0.2780902044
 N          3.5532271538        0.8988549804       -0.8090824852
 S          3.3187277375        1.8600237919        0.5373721145
 O          4.3551597472        2.8679703543        0.4470451390
 O          3.2923062368        1.0847284748        1.7547928920
 C          1.7529433783        2.6532536256        0.2564759690
 C          1.5402365129        3.2575667553       -0.9668572283
 C          0.3560321208        3.9447108760       -1.1771758672
 C         -0.5848675262        4.0255199021       -0.1619282502
 C         -0.3566387826        3.4122260421        1.0601022182
 C          0.8223134239        2.7158680066        1.2734044747
 H          1.0346359278        2.2177388817        2.2066269599
 H         -1.0901101460        3.4716926040        1.8481815949
 H         -1.5021748817        4.5690025899       -0.3240117789
 H          0.1720167157        4.4190723468       -2.1277540819
 H          2.3003882238        3.1833587213       -1.7264745797
 H          4.4481410259        1.0786149168       -1.2408702290
 H          4.8926312073       -1.1101731831       -1.8951363021
 H          4.2018538076       -3.4785700088       -1.8665768174
 H          2.1331577945       -4.1526695617       -0.7430606192
 H          0.4389100100       -2.2411207019        1.6211806679
 C         -0.0054934836       -4.0084431395        0.5037540527
 C          0.6321587136       -4.9686338146        1.4620036104
 C         -0.8174119453       -4.6178852664        1.6054949462
 H         -1.5573818580       -5.3614643921        1.3493392716
 H         -1.1132889265       -3.9697450162        2.4170994593
 H          0.8865095322       -5.9572132113        1.1104882686
 H          1.3256311160       -4.5651052386        2.1842636343
 H         -0.2059892743       -4.3484780472       -0.5070613689
