  62
        -98.94514912
 C         -2.5268046362       -0.2736963830        0.0542156800
 C         -2.2456781716       -1.2889056361       -0.8893588735
 C         -1.6215022094       -2.5076041549       -0.3613686649
 C         -1.3677986289       -2.5966215102        0.9571604531
 C         -0.7356042306       -3.7809194894        1.6299409970
 C          0.7876350066       -3.6353282160        1.7353966449
 C          1.4735612140       -3.2615999125        0.4211307966
 H          1.2000771505       -2.2375396996        0.1553585442
 H          2.5501601203       -3.2574598256        0.6098808816
 C          1.1661010784       -4.1954556271       -0.7571204532
 H          2.0967689565       -4.3938815934       -1.2927546732
 H          0.7917311464       -5.1512125444       -0.3873468672
 C          0.1811982006       -3.6214959505       -1.7778625079
 H          0.4843881482       -2.6028241321       -2.0379127244
 H          0.2414264406       -4.2252469731       -2.6878262317
 C         -1.2901009025       -3.5961792051       -1.3426536338
 H         -1.5745031709       -4.5742924158       -0.9480158243
 H         -1.8977057373       -3.3928460963       -2.2296447585
 H          1.0110828644       -2.8505947872        2.4618007322
 H          1.1965870202       -4.5771331510        2.1075501129
 H         -0.9867650109       -4.6812130077        1.0716473453
 H         -1.1514512317       -3.8601151148        2.6362570909
 O         -1.6581775719       -1.6040905587        1.8359332314
 C         -2.1951028138       -0.4019420715        1.4032818389
 O         -2.3541852979        0.4446387846        2.3038633552
 O         -2.5129345957       -1.1808763451       -2.1193121933
 C         -3.0866360864        1.0485291878       -0.4392999829
 C         -2.0488948531        2.1296194423       -0.2529791749
 C         -2.3390127093        3.4244328067        0.1537794671
 C         -1.3238077201        4.3565147858        0.3026536617
 C         -0.0031141633        4.0153900236        0.0780941001
 C          0.2961865845        2.7199464963       -0.3305082799
 C         -0.7240854613        1.8081499701       -0.5240011172
 H         -0.4795266502        0.8144640759       -0.8722317588
 N          1.6434304585        2.3100503776       -0.4894189724
 S          1.9923264616        0.6757813602       -0.3657212844
 O          1.7332828275       -0.0270279981       -1.6074817865
 O          1.3486196899        0.1735866454        0.8206630790
 C          3.7532240432        0.7650722786       -0.1010231754
 C          4.2020386634        1.2253844980        1.1222622590
 C          5.5662016718        1.3245164151        1.3425922744
 C          6.4554502795        0.9638068964        0.3406432539
 C          5.9908532312        0.5010981997       -0.8807740611
 C          4.6266066302        0.4005174504       -1.1069176830
 H          4.2186962200        0.0393656061       -2.0373466786
 H          6.6838249756        0.2180508432       -1.6566677934
 H          7.5170067308        1.0417457736        0.5146067698
 H          5.9305549955        1.6815456794        2.2923718664
 H          3.4720414376        1.4848860990        1.8716212780
 H          2.1471858419        2.7705769256       -1.2328706339
 H          0.7905005513        4.7309760734        0.2206583751
 H         -1.5668075163        5.3603524065        0.6164207937
 H         -3.3596976089        3.7041498710        0.3589377384
 H         -3.2429124999        0.9115241923       -1.5209906211
 C         -4.4159240994        1.3673070818        0.2103731302
 C         -5.4477500557        2.1630254075       -0.5306079370
 C         -5.6522318023        0.6959936660       -0.3058560882
 H         -6.4008845624        0.3789701982        0.4042706765
 H         -5.5369538015        0.0270610868       -1.1464153910
 H         -6.0619390944        2.8547022023        0.0258858435
 H         -5.2038842479        2.4912293775       -1.5297719163
 H         -4.3305476861        1.5048390361        1.2821161910
