  62
        -98.93952912
 C         -2.6713099588       -1.2823285571        0.3138260546
 C         -2.8507878655       -0.4875986388       -0.8447056770
 C         -3.8318267230        0.6035415902       -0.7292226750
 C         -4.4976673598        0.7821361120        0.4252873786
 C         -5.4713851323        1.8914181237        0.6951540262
 C         -4.7661678145        3.1114255454        1.3044124922
 C         -3.5113662186        3.5432608650        0.5453276536
 H         -3.1174570582        4.4297839114        1.0468796848
 H         -2.7534335969        2.7612432247        0.6340636197
 C         -3.7440564248        3.8575625580       -0.9391877456
 H         -3.2216730081        4.7839566558       -1.1870455553
 H         -4.8061218063        4.0264113217       -1.1203902321
 C         -3.2306471453        2.7862769712       -1.9031922446
 H         -3.2457019436        3.2028106304       -2.9140128273
 H         -2.1911921048        2.5468139067       -1.6640960450
 C         -4.0316410619        1.4783326102       -1.9351628943
 H         -5.0909110681        1.6986810022       -2.0810110111
 H         -3.6810507703        0.8948682311       -2.7916975409
 H         -4.4785035400        2.8682766930        2.3298090692
 H         -5.4765366414        3.9394099627        1.3376962227
 H         -5.9650804915        2.1696376000       -0.2338752503
 H         -6.2209089049        1.5267813108        1.3994470315
 O         -4.3161624934       -0.0130884378        1.5096054984
 C         -3.3972465189       -1.0465060978        1.4863821119
 O         -3.3222732885       -1.6860106544        2.5539147484
 H         -0.1953830827       -0.7376416784       -1.0803269932
 C          0.3174767680       -1.0273338398       -0.1745568449
 C         -0.3047714826       -1.9107493215        0.6978239183
 C          0.3652292380       -2.2862218211        1.8554080567
 C          1.6259441893       -1.7847207705        2.1309435325
 C          2.2405236313       -0.9013800623        1.2617275177
 C          1.5793735655       -0.5218299219        0.1002319655
 N          2.1868468416        0.3862267091       -0.7848303216
 S          3.7618767476        0.0748975835       -1.2744050792
 O          3.9077247288        0.7480436193       -2.5462357575
 O          4.0501256772       -1.3408741788       -1.2599233444
 C          4.7567279607        0.9137585437       -0.0590788432
 C          5.7477536156        0.2274155374        0.6147484342
 C          6.5165798455        0.9055526340        1.5480478473
 C          6.2824733836        2.2507239906        1.7885459689
 C          5.2845452774        2.9261399565        1.1015672917
 C          4.5133314793        2.2544302668        0.1666697119
 H          3.7304053176        2.7424727753       -0.3896539288
 H          5.1050639403        3.9721143759        1.2916250861
 H          6.8809502372        2.7761992016        2.5158744613
 H          7.2927475916        0.3824095089        2.0831328275
 H          5.8894563852       -0.8196309102        0.3990365989
 H          1.6054437449        0.6175135496       -1.5779948084
 H          3.2218533430       -0.5083634875        1.4721080681
 H          2.1354627183       -2.0838022081        3.0342038451
 H         -0.1134321422       -2.9663721370        2.5448023328
 C         -1.6828239295       -2.4371527637        0.3854425849
 H         -2.0115403352       -3.0395970432        1.2453521742
 C         -1.7272505923       -3.3261949716       -0.8533701212
 C         -0.5079749736       -3.7126825249       -1.6339851741
 C         -1.2003069625       -4.7287744157       -0.7800988983
 H         -1.7584127675       -5.5191923210       -1.2588000464
 H         -0.7111972965       -5.0258749323        0.1356091988
 H          0.4540297995       -3.3449901801       -1.3100900725
 H         -0.6030983149       -3.7848285180       -2.7072627079
 H         -2.6323675869       -3.1839611063       -1.4329372853
 O         -2.2349107954       -0.6590659310       -1.9304246170
