  62
        -98.94485251
 C         -2.1745173314       -1.3412391654        0.1440605201
 C         -2.1011273604       -0.5134730083       -1.0022587643
 C         -2.9228454387        0.7062909798       -0.9670798328
 C         -3.6905217247        0.9624373646        0.1069695795
 C         -4.5167393108        2.2003877063        0.2983679814
 C         -3.7167240436        3.2934131871        1.0215557013
 C         -2.3279030757        3.5369879024        0.4305518960
 H         -1.8702725018        4.3448923336        1.0054327550
 H         -1.7171872001        2.6439768994        0.5825161483
 C         -2.3279978818        3.9072581677       -1.0597226562
 H         -1.6485873195        4.7486156114       -1.2143951330
 H         -3.3227425455        4.2402816812       -1.3580354708
 C         -1.8714134255        2.7860633099       -1.9956003380
 H         -1.7055957951        3.2170988009       -2.9867521546
 H         -0.9170960981        2.3803301825       -1.6504092261
 C         -2.8516418594        1.6180629688       -2.1599401636
 H         -3.8422538709        1.9992324349       -2.4151230428
 H         -2.4976198529        1.0006367456       -2.9906998521
 H         -3.5957673779        2.9988502595        2.0664503973
 H         -4.2947094718        4.2188792987        0.9939965513
 H         -4.8523884659        2.5617171778       -0.6717450131
 H         -5.3893887808        1.9422643237        0.9005620665
 O         -3.7580153900        0.1317197475        1.1773408876
 C         -3.0005613044       -1.0241695713        1.2283206527
 O         -3.1509165177       -1.6856337670        2.2745544584
 H          0.5533054730       -1.7101732550       -1.4056203336
 C          0.9289352051       -1.8448170323       -0.4031081504
 C          0.0740463206       -2.3026783396        0.5889954391
 C          0.5645088755       -2.4258816881        1.8846374499
 C          1.8815052623       -2.1146611766        2.1728225931
 C          2.7342199260       -1.6679051580        1.1789791768
 C          2.2479089735       -1.5218773188       -0.1138301350
 N          3.0926264294       -1.0565186523       -1.1347136511
 S          4.1558978810        0.1911081314       -0.8173139276
 O          4.4574862077        0.7662995726       -2.1085287428
 O          5.2829230977       -0.3152315784       -0.0734901720
 C          3.2550994823        1.3625188915        0.1823020628
 C          3.6171343382        1.5701073642        1.4976651301
 C          2.8935411522        2.4749196120        2.2579784356
 C          1.8291799164        3.1572640668        1.6903309379
 C          1.4832387791        2.9448141583        0.3644785406
 C          2.1973596345        2.0347881044       -0.3974512096
 H          1.9550593817        1.8477073999       -1.4318563718
 H          0.6592228079        3.4832606329       -0.0755101891
 H          1.2660986626        3.8621366360        2.2814585520
 H          3.1621379934        2.6449837800        3.2881134044
 H          4.4585658394        1.0280653556        1.8972282528
 H          2.6239244275       -0.9262119967       -2.0191296976
 H          3.7668544021       -1.4378088813        1.3837944115
 H          2.2500973168       -2.2234637954        3.1813972486
 H         -0.1009400972       -2.7596889372        2.6679339018
 C         -1.3704039288       -2.6256687645        0.2873949628
 H         -1.7874271132       -3.1361043060        1.1653546582
 C         -1.5163405370       -3.5438656936       -0.9101080299
 C         -1.1580813804       -4.9907484791       -0.7617929156
 C         -2.5936035215       -4.5844042992       -0.9043258313
 H         -3.1041135189       -4.8031942702       -1.8303062429
 H         -3.2294964098       -4.6411781478       -0.0326082136
 H         -0.8199056063       -5.3244599656        0.2076649507
 H         -0.6802098783       -5.4913478904       -1.5899338118
 H         -1.2998719697       -3.0655111346       -1.8558755803
 O         -1.3943186536       -0.7565888290       -2.0171385222
