  62
        -98.93812909
 C          1.9786717684        1.3935404791        0.2977660884
 C          2.6190387657        0.7134215043       -0.7649934939
 C          3.7670015287       -0.1329906416       -0.3952568552
 C          4.1447468473       -0.2120217815        0.8921075842
 C          5.3019338107       -0.9794386428        1.4803820252
 C          5.5151626719       -2.4188521743        0.9888541606
 C          4.2357391373       -3.1677756847        0.5874049247
 H          4.2210595293       -4.1379686838        1.0878272156
 H          3.3554780182       -2.6165363958        0.9232526559
 C          4.1371184762       -3.4173228932       -0.9198036495
 H          3.4380895138       -4.2389983876       -1.0943798840
 H          5.1153408070       -3.7380915413       -1.2846639201
 C          3.6563071520       -2.2310710011       -1.7554684644
 H          2.5928632917       -2.0529365962       -1.5710254403
 H          3.7542589495       -2.5018890759       -2.8094945925
 C          4.3991197884       -0.9063966071       -1.5159730429
 H          5.4595062476       -1.0743696569       -1.3438332356
 H          4.2824515927       -0.2910687894       -2.4121229679
 H          6.2019742957       -2.4170134388        0.1435988129
 H          6.0128541942       -2.9580660684        1.7965348073
 H          6.2157189295       -0.4037704288        1.3080308127
 H          5.1220911410       -0.9831939185        2.5580730412
 O          3.4959496370        0.4613905926        1.8845497609
 C          2.3965303265        1.2607259369        1.6197904971
 O          1.8827030176        1.7828770052        2.6307780417
 H         -0.0670788767       -0.1391434808        0.7502135820
 C         -0.6199586116        0.2138457086       -0.1123465076
 C         -0.3140549077        1.4601982325       -0.6461427301
 C         -1.0447635622        1.9075177041       -1.7386351596
 C         -2.0275171656        1.1096084021       -2.3001133972
 C         -2.3093924616       -0.1407909907       -1.7831764430
 C         -1.5991911335       -0.5888716246       -0.6758979794
 N         -1.8902362889       -1.8504966668       -0.1295578126
 S         -3.5003445724       -2.2592170807        0.0757386551
 O         -3.5162440859       -3.1896415712        1.1828027132
 O         -4.0376361864       -2.7534502531       -1.1673928662
 C         -4.3186302277       -0.7379386661        0.5227482349
 C         -3.8982638098       -0.0843037473        1.6642322757
 C         -4.5001663136        1.1142266269        2.0106267702
 C         -5.5078560011        1.6360893570        1.2136618355
 C         -5.9225784349        0.9650847418        0.0740090106
 C         -5.3220858543       -0.2330233950       -0.2786475605
 H         -5.6108202083       -0.7860130015       -1.1575367208
 H         -6.7077236846        1.3723207084       -0.5422516489
 H         -5.9717443971        2.5711449659        1.4850732547
 H         -4.1774598947        1.6368043279        2.8969540187
 H         -3.1150627203       -0.5171626858        2.2663549517
 H         -1.3460812298       -2.0814081031        0.6881680079
 H         -3.0565437620       -0.7818724941       -2.2220957887
 H         -2.5781751119        1.4650393731       -3.1574036061
 H         -0.8377953639        2.8774706214       -2.1593101344
 C          0.7739663018        2.2720999540        0.0152132048
 H          0.4028481873        2.6036545421        0.9962582768
 C          1.1915712107        3.4892182309       -0.7837081962
 C          0.4539053517        4.7843883301       -0.6306237529
 C          1.8334241308        4.6363295284       -0.0647463695
 H          2.6494980229        5.1548281164       -0.5452286639
 H          1.9438448762        4.5493026721        1.0067063926
 H         -0.3752317447        4.8096053510        0.0600068799
 H          0.3245746881        5.4104298296       -1.5005505444
 H          1.5814416867        3.2302306705       -1.7612685642
 O          2.2566382495        0.8088724305       -1.9654769139
