  62
        -98.93711965
 C          2.5568556104        0.1451882705       -0.1455270096
 C          2.2397681007        1.2476014006       -0.9766651697
 C          1.6332285606        2.4209183806       -0.3287112298
 C          1.4285667103        2.4045614806        0.9991886302
 C          0.8876236602        3.4987508606        1.8865292200
 C         -0.3215226396        4.2950506207        1.3816248598
 C         -1.3348535295        3.4845381908        0.5600759295
 H         -1.1316822396        2.4148784408        0.6501722896
 H         -2.3358778396        3.6574797908        0.9611727693
 C         -1.3512591292        3.8749417208       -0.9196182005
 H         -1.3176780191        4.9645311108       -0.9984544704
 H         -2.2939600091        3.5379334408       -1.3580034707
 C         -0.2298220590        3.2746723207       -1.7657068402
 H         -0.3801451391        2.1934264507       -1.8463798302
 H         -0.3134921888        3.6842989307       -2.7758863302
 C          1.1981001409        3.5243809906       -1.2492475299
 H          1.8779310611        3.4901774006       -2.1051382497
 H          1.2813194208        4.5012016806       -0.7781426099
 H         -0.8152401798        4.7069365307        2.2636414597
 H          0.0203609405        5.1419470007        0.7879184499
 H          1.7058545902        4.1918422306        2.1056851502
 H          0.6278901699        2.9974900406        2.8220684300
 O          1.7616590501        1.3301180206        1.7659969302
 C          2.2474441101        0.1554050105        1.2155374903
 O          2.3782098899       -0.7669977995        2.0425556304
 O          2.4555372210        1.2510957405       -2.2201581096
 C          3.0043553505       -1.1408680695       -0.8247613895
 C          2.0038852103       -2.2069020794       -0.4537615597
 C          2.3117769801       -3.4132683895        0.1576485403
 C          1.2965928600       -4.2710688594        0.5490115801
 C         -0.0324122299       -3.9347099193        0.3686725998
 C         -0.3481556097       -2.7328979593       -0.2567352703
 C          0.6689851704       -1.9053478993       -0.6937846800
 H          0.4162813306       -0.9745728493       -1.1818469101
 N         -1.6815492197       -2.3286220492       -0.4579798906
 S         -1.9851147496       -0.6654135892       -0.3405777806
 O         -1.7326336893       -0.0642510792       -1.6267174406
 O         -1.2826771798       -0.1002067692        0.7882776595
 C         -3.7419805196       -0.6788699891       -0.0358126110
 C         -4.2129551699       -0.4910822490        1.2494502389
 C         -5.5801225400       -0.5336782590        1.4753239286
 C         -6.4472993798       -0.7660340989        0.4184922184
 C         -5.9594885995       -0.9522385089       -0.8667096815
 C         -4.5942084994       -0.9085951790       -1.0996674312
 H         -4.1682649892       -1.0367723390       -2.0809956711
 H         -6.6367496093       -1.1298673689       -1.6863546517
 H         -7.5103655998       -0.7987211788        0.5972090382
 H         -5.9616648502       -0.3852329489        2.4725682185
 H         -3.4999302601       -0.3069695991        2.0373352090
 H         -2.3381369098       -2.8632934192        0.0948555593
 H         -0.8188539801       -4.5879537593        0.7152114296
 H          1.5455787498       -5.2040173894        1.0319434602
 H          3.3398813801       -3.6661924195        0.3593332506
 H          2.8865967008       -0.9269393395       -1.9012736195
 C          4.4556218504       -1.5401631196       -0.6244007992
 C          5.4996450004       -0.5083124197       -0.3205378389
 C          5.1329290301       -1.5297436896        0.7117903010
 H          5.8440780900       -2.3144715197        0.9257716111
 H          4.5516112700       -1.2186222396        1.5643843008
 H          6.4592448405       -0.5858913197       -0.8092966187
 H          5.1624162705        0.5077086804       -0.1724427890
 H          4.7497696405       -2.3311883396       -1.3081344791
