  62
        -98.93894916
 C         -2.0937220884       -0.8924367649        0.3678758528
 C         -2.7112802812        0.0079802956        1.2721716374
 C         -3.1229528497        1.3053566270        0.7212018856
 C         -2.8376440212        1.5921287757       -0.5618075368
 C         -3.2293459749        2.8585462130       -1.2652026121
 C         -4.5955939351        2.7154180685       -1.9503592550
 C         -5.6831151043        2.1390156969       -1.0435872833
 H         -6.6084783096        2.1123901010       -1.6228121771
 H         -5.4291174773        1.1056198049       -0.7965809168
 C         -5.9129177758        2.9282161795        0.2529381315
 H         -6.9877546706        3.0448976380        0.4056561951
 H         -5.4884260352        3.9281752025        0.1574570903
 C         -5.3547231802        2.2592892984        1.5104112992
 H         -5.7575668574        2.7826837483        2.3814362934
 H         -5.7034026245        1.2246847294        1.5605091202
 C         -3.8266953127        2.2600589873        1.6444619458
 H         -3.4454680096        3.2747315299        1.5114844871
 H         -3.5810463968        1.9304880540        2.6583552633
 H         -4.9035731402        3.6977287640       -2.3129725066
 H         -4.4818489751        2.0548034052       -2.8130468376
 H         -2.4718435907        3.0779538535       -2.0198812715
 H         -3.2554982039        3.6738671540       -0.5445723992
 O         -2.1872086379        0.7305892749       -1.3835591388
 C         -1.7942159109       -0.5281597994       -0.9468074320
 O         -1.2019872225       -1.1979629208       -1.8132783848
 O         -2.8977770056       -0.2585583908        2.4902398003
 C         -1.6372157458       -2.2350576560        0.9136283644
 C         -0.1986631242       -2.4654660068        0.5238871263
 C          0.2542725429       -3.5743087033       -0.1769641242
 C          1.5855987120       -3.6765870240       -0.5442426910
 C          2.4901362165       -2.6808731075       -0.2254957111
 C          2.0472391511       -1.5718256608        0.4812517297
 C          0.7200897067       -1.4786726786        0.8614731868
 H          0.3777735833       -0.6020361226        1.4006000772
 N          2.9643287022       -0.5327214085        0.7871843044
 S          3.3204257510        0.4841242407       -0.5199213104
 O          2.3719741975        1.5804198113       -0.5511124574
 O          3.4411768864       -0.3090688428       -1.7147340599
 C          4.9239632860        1.0937450580       -0.0349877186
 C          6.0181781337        0.2710507698       -0.2195142043
 C          7.2661968580        0.7138006284        0.1876060168
 C          7.3981061070        1.9645651661        0.7725817375
 C          6.2905762071        2.7790805958        0.9512821104
 C          5.0392012447        2.3409697603        0.5463541069
 H          4.1519750449        2.9433193614        0.6581754094
 H          6.3956165853        3.7519276647        1.4039939516
 H          8.3703724884        2.3076084112        1.0892266096
 H          8.1298960977        0.0838144313        0.0485972111
 H          5.8679310405       -0.6885679433       -0.6854489306
 H          2.6065252360        0.0610031035        1.5255204154
 H          3.5205867100       -2.7365451850       -0.5346449882
 H          1.9192357481       -4.5400544730       -1.0995754202
 H         -0.4409109949       -4.3454949749       -0.4658320617
 H         -1.6753008033       -2.1077541223        2.0091508875
 C         -2.5564308652       -3.4006592291        0.5844950809
 C         -4.0135543638       -3.1783266159        0.3130306421
 C         -3.1060985465       -3.6276239852       -0.7906431534
 H         -3.1965107216       -4.6445281286       -1.1437442365
 H         -2.8352813974       -2.9212787863       -1.5594071792
 H         -4.7250055861       -3.8828540366        0.7168150306
 H         -4.3686191825       -2.1579305721        0.2983218366
 H         -2.3073774267       -4.2865154920        1.1605413780
