  62
        -98.93531651
 C          2.1549985606        1.0745119685        0.0259010687
 C          2.7629849201        0.4116697388        1.1218445373
 C          3.5553646568       -0.7925891990        0.8227110909
 C          3.6411278570       -1.2125403335       -0.4509687936
 C          4.4279772325       -2.3774070778       -0.9851196445
 C          5.8232461582       -1.9262039921       -1.4498778750
 C          6.8950070737       -1.9218607850       -0.3605803244
 H          7.1440266342       -2.9523766981       -0.0990580346
 H          7.7909100344       -1.4665416332       -0.7887555219
 C          6.5241068421       -1.1682384997        0.9192269428
 H          6.0320371952       -0.2282105387        0.6630747859
 H          7.4499279718       -0.9172850557        1.4402925899
 C          5.6285482399       -1.9847115645        1.8629072397
 H          6.0636417990       -1.9855634641        2.8644148306
 H          5.6131901631       -3.0229150962        1.5319361609
 C          4.1900510933       -1.4679450640        2.0077140348
 H          3.5427159848       -2.2933183771        2.3235482329
 H          4.1498265502       -0.7198585980        2.8058038365
 H          6.1567409838       -2.5900684570       -2.2500268719
 H          5.7259617208       -0.9243091750       -1.8759405604
 H          4.4956526373       -3.1684458746       -0.2441424572
 H          3.8766998400       -2.7534093105       -1.8497955402
 O          3.0273163582       -0.5596599195       -1.4744686224
 C          2.2685846422        0.5839752195       -1.2744620998
 O          1.7698694716        1.0381070616       -2.3224389421
 O          2.6579905740        0.8230525396        2.3087220094
 C          1.3461270571        2.3196985805        0.3495465634
 C         -0.1015479967        1.9568084455        0.5597477904
 C         -0.7625043843        2.2777864140        1.7387883642
 C         -2.0808499912        1.9016399033        1.9317518546
 C         -2.7646020674        1.1997584428        0.9552363162
 C         -2.1108701798        0.8704779360       -0.2250605239
 C         -0.7922752165        1.2512118735       -0.4169379785
 H         -0.2872933351        0.9876740115       -1.3353721035
 N         -2.7977361578        0.1415732160       -1.2211092627
 S         -3.2482237734       -1.4198667323       -0.7756251407
 O         -2.3403739556       -1.9670456762        0.2081411718
 O         -3.3748484080       -2.1554580888       -2.0149154990
 C         -4.8642817817       -1.1987055527       -0.0621971537
 C         -5.8659554921       -0.6936266507       -0.8682569309
 C         -7.1289668104       -0.5092079210       -0.3289052805
 C         -7.3678261963       -0.8334203353        0.9985184231
 C         -6.3523437027       -1.3431738346        1.7932202255
 C         -5.0860243211       -1.5290852892        1.2602910150
 H         -4.2635531739       -1.9164804126        1.8401924671
 H         -6.5397935262       -1.5950443419        2.8246436191
 H         -8.3514817119       -0.6881975973        1.4163452967
 H         -7.9212054735       -0.1135897147       -0.9437055585
 H         -5.6373925713       -0.4603315936       -1.8947394335
 H         -2.2817039627        0.0990738724       -2.0899787208
 H         -3.7907050511        0.9032436412        1.0994946564
 H         -2.5807070485        2.1553847058        2.8539016773
 H         -0.2293194394        2.8078942990        2.5142385210
 H          1.7431146211        2.6632201340        1.3177424253
 C          1.5492661650        3.4483328475       -0.6519431531
 C          0.4772028593        3.9578551316       -1.5638154418
 C          0.9225102276        4.7881631596       -0.4001740444
 H          1.5056152382        5.6769472385       -0.5869233520
 H          0.2489127281        4.8671381160        0.4398459791
 H          0.7706011207        4.2531254390       -2.5597215423
 H         -0.4975739432        3.4986484790       -1.5182308268
 H          2.5569557716        3.4517366388       -1.0551918830
