  62
        -98.94701290
 C          2.3104606120        0.4168582030       -0.4652347082
 C          1.4364585825       -0.4676163464       -1.1412186970
 C          1.6378259781       -1.9011752612       -0.8834259676
 C          2.5928156058       -2.2946353064       -0.0234186029
 C          2.8713440166       -3.7168507050        0.3664478765
 C          2.0729007529       -4.1267220262        1.6111459629
 C          0.5818232981       -3.7968612893        1.5324895330
 H          0.1162927513       -4.1801843284        2.4437902527
 H          0.4442552345       -2.7123682280        1.5421130142
 C         -0.1364710046       -4.3807391411        0.3080028228
 H         -1.0875266858       -4.8072880909        0.6340614530
 H          0.4548672344       -5.1911528985       -0.1211185376
 C         -0.4588846910       -3.3484999858       -0.7738376846
 H         -1.1835151758       -3.7890324121       -1.4642920770
 H         -0.9309658989       -2.4819105940       -0.3041276173
 C          0.7365180026       -2.8638146775       -1.6048828491
 H          1.3043887267       -3.7226378128       -1.9694641536
 H          0.3444527138       -2.3197314079       -2.4689959233
 H          2.4910553242       -3.6092204923        2.4778369574
 H          2.2004399949       -5.2006443016        1.7625389803
 H          2.6235446385       -4.3710014830       -0.4673615577
 H          3.9369646227       -3.8089706039        0.5847132409
 O          3.4067820062       -1.4199011111        0.6212350967
 C          3.2773683500       -0.0567315044        0.4269297950
 O          4.0844228380        0.6298111387        1.0877699231
 H         -0.3555995348        1.2354100441       -0.2952676822
 C         -0.0613711279        1.9820611760        0.4212663172
 C          1.2343200426        2.4780911001        0.4024025982
 C          1.5901396009        3.4551474981        1.3238462475
 C          0.6722012839        3.9086233723        2.2547637428
 C         -0.6004402639        3.3702175984        2.3058255502
 C         -0.9660471660        2.3904380032        1.3883381898
 N         -2.2416169567        1.8071471239        1.4289210850
 S         -2.4378153114        0.1375745661        1.2946160627
 O         -3.3292699699       -0.2202822591        2.3817234393
 O         -1.1677400042       -0.5426782187        1.2668378114
 C         -3.3335561656       -0.0457470441       -0.2350611732
 C         -4.7126593981        0.0328782321       -0.1721465402
 C         -5.4501717389       -0.0816968161       -1.3383041184
 C         -4.7993927852       -0.2722437220       -2.5481464631
 C         -3.4166966402       -0.3488369021       -2.5949955768
 C         -2.6710962357       -0.2334825211       -1.4307761025
 H         -1.5935854692       -0.2916374043       -1.4570442636
 H         -2.9040765935       -0.4966391230       -3.5321768950
 H         -5.3712554694       -0.3628565452       -3.4583055710
 H         -6.5260674182       -0.0232752303       -1.3007872166
 H         -5.1766767546        0.1667643482        0.7910638891
 H         -2.8259978514        2.1592292048        2.1738326152
 H         -1.3061116626        3.6979703405        3.0546861289
 H          0.9579594389        4.6706225602        2.9642323139
 H          2.5980417860        3.8436454278        1.3217271805
 C          2.2407928541        1.9328877376       -0.5837917938
 H          3.2319562045        2.3005616738       -0.2833669534
 C          1.9520911116        2.4319932222       -1.9855769840
 C          2.3959349716        3.8099749995       -2.3706131432
 C          3.0860762346        2.6110546886       -2.9474436166
 H          2.9226903249        2.3669276286       -3.9861590257
 H          4.0805560915        2.3761163480       -2.5958958878
 H          1.7567831232        4.3944129491       -3.0142362698
 H          2.9260652600        4.3914774590       -1.6315469273
 H          1.0131184361        2.0739495942       -2.3850846178
 O          0.5276200356       -0.1062482456       -1.9363835995
