  62
        -98.94509991
 C         -2.5603816284       -0.0421575516        0.3758459059
 C         -2.2470018471        0.5800471845       -0.8566689288
 C         -1.9718564335        2.0221242103       -0.7945566722
 C         -2.0478787489        2.6583147063        0.3880839148
 C         -1.8199710226        4.1285920832        0.5903591472
 C         -0.3665567189        4.4455650656        0.9631349751
 C          0.6702762243        3.8042458107        0.0409577191
 H          1.6513263674        4.1632556603        0.3617225396
 H          0.6686319323        2.7217539201        0.1873162322
 C          0.4799111858        4.1096481560       -1.4510762405
 H         -0.1415383471        4.9978462537       -1.5748965036
 H          1.4569838923        4.3327720960       -1.8845201013
 C         -0.1115539815        2.9526335600       -2.2596307663
 H          0.0627861012        3.1519532337       -3.3205955518
 H          0.4142677268        2.0291427009       -2.0022711337
 C         -1.6165285974        2.7134237015       -2.0800139339
 H         -2.1563780735        3.6582123546       -2.1766832659
 H         -1.9482157248        2.0435009309       -2.8787946373
 H         -0.2420974859        5.5306691463        0.9546718201
 H         -0.1829872532        4.0898128212        1.9799221671
 H         -2.0931205385        4.6556523576       -0.3220722224
 H         -2.4716023232        4.4628402687        1.4002502157
 O         -2.3455254243        2.0247808501        1.5532869194
 C         -2.5799562553        0.6597388871        1.5787828770
 O         -2.8056287540        0.1970650419        2.7181407819
 O         -2.2167330683       -0.0343514981       -1.9554502262
 C         -2.8417434020       -1.5322439036        0.4186617148
 C         -1.6907024512       -2.3115917462       -0.1723328158
 C         -1.8644867622       -3.4944468503       -0.8797014134
 C         -0.7687767090       -4.1756508626       -1.3822122647
 C          0.5129077413       -3.6896834168       -1.2064728156
 C          0.6968576282       -2.5013849473       -0.5054551812
 C         -0.3985411182       -1.8438891603        0.0272425072
 H         -0.2455001439       -0.9372624532        0.5946442229
 N          1.9811603172       -1.9493227261       -0.3727103804
 S          2.2728892381       -0.6177426683        0.6044257779
 O          2.0159266150       -0.9345326543        1.9945401650
 O          1.5774246049        0.5208685812        0.0636337518
 C          4.0263697292       -0.4367072380        0.3417227040
 C          4.4635905942        0.3108826279       -0.7349002962
 C          5.8259206487        0.4281285442       -0.9607115503
 C          6.7235334122       -0.2021572759       -0.1117785833
 C          6.2703020947       -0.9471248915        0.9666164885
 C          4.9090345778       -1.0679538310        1.1977445804
 H          4.5111042576       -1.6254518968        2.0304792071
 H          6.9704848484       -1.4326233696        1.6271347124
 H          7.7832039904       -0.1092216085       -0.2897171947
 H          6.1813196723        1.0099314606       -1.7957930951
 H          3.7278204755        0.7882588346       -1.3612819856
 H          2.7301202972       -2.6257023468       -0.3647915518
 H          1.3640030277       -4.2126447618       -1.6139975853
 H         -0.9172656978       -5.0963276319       -1.9259044696
 H         -2.8576729957       -3.8819174120       -1.0385528224
 H         -2.9213478610       -1.7970921050        1.4845531898
 C         -4.1655357418       -1.8297307386       -0.2587320025
 C         -5.0458468370       -2.9359190279        0.2381269200
 C         -5.4356338260       -1.5076233419        0.4678513592
 H         -6.2619842926       -1.0980399639       -0.0932530360
 H         -5.3423688332       -1.1036422302        1.4658546912
 H         -5.6105098593       -3.5083352191       -0.4823800074
 H         -4.7019927100       -3.5067364868        1.0876233566
 H         -4.1348420298       -1.6356330100       -1.3248291892
