  62
        -98.94608389
 C         -0.9435128921       -1.6543392152        0.6154816751
 C         -1.7157926070       -1.5633885129       -0.5672832027
 C         -2.8600044366       -0.6420513912       -0.5139531808
 C         -3.0905519485        0.0600673041        0.6104137692
 C         -4.2267158255        1.0227700977        0.7997642113
 C         -3.8347034004        2.4550461375        0.4142368331
 C         -3.1297923548        2.5605430587       -0.9374381342
 H         -2.9206538836        3.6170685441       -1.1145218396
 H         -2.1665008927        2.0482612895       -0.8790805114
 C         -3.9354184410        1.9992437973       -2.1173407576
 H         -3.8692496545        2.7009466830       -2.9513091809
 H         -4.9882932643        1.9201144238       -1.8437677305
 C         -3.4459936716        0.6461762749       -2.6364909896
 H         -3.9313696560        0.4553605574       -3.5974242158
 H         -2.3688262391        0.6891124870       -2.8171420030
 C         -3.7349311696       -0.5591039149       -1.7329038693
 H         -4.7905185957       -0.5648407640       -1.4528869371
 H         -3.5280700100       -1.4649703013       -2.3103131951
 H         -4.7379239879        3.0678000693        0.4052287177
 H         -3.1642917401        2.8445063355        1.1816510406
 H         -4.5159378172        1.0051742329        1.8520808550
 H         -5.0715135095        0.6918562925        0.1983219176
 O         -2.2915889478       -0.0127793128        1.7065043892
 C         -1.2026199101       -0.8686696679        1.7376162986
 O         -0.5541129351       -0.8382921026        2.8041003685
 O         -1.4755620085       -2.2289198627       -1.6080340129
 C          0.2243453017       -2.6216986069        0.6808925755
 C          1.2566818272       -2.2630929782       -0.3603057984
 C          1.7912680493       -3.1730487809       -1.2621430445
 C          2.7493371251       -2.7684952051       -2.1758718158
 C          3.2133627009       -1.4665262195       -2.1883907659
 C          2.6914663885       -0.5492203906       -1.2822623720
 C          1.7090672255       -0.9495136296       -0.3925618040
 H          1.2976460261       -0.2342870575        0.3044082063
 N          3.1407866394        0.7794828576       -1.2597349454
 S          3.3534797245        1.5736883031        0.2006475424
 O          4.3936755839        2.5442917221       -0.0702747732
 O          3.6127159615        0.6468969591        1.2761568859
 C          1.8299039786        2.4547263198        0.4649952056
 C          1.5353960058        3.4925487282       -0.3984878328
 C          0.3828665783        4.2313356901       -0.1919748952
 C         -0.4532995816        3.9225504343        0.8706332294
 C         -0.1498428372        2.8725071428        1.7226613855
 C          1.0046533698        2.1313074465        1.5226647901
 H          1.2640925488        1.3101103222        2.1743987654
 H         -0.8011890146        2.6142527356        2.5433152520
 H         -1.3443175144        4.5069958152        1.0378252794
 H          0.1402754182        5.0463293817       -0.8544853537
 H          2.2208278885        3.7098123002       -1.2006423454
 H          3.8904006289        0.9832953360       -1.9047933005
 H          3.9723074375       -1.1579055964       -2.8912747527
 H          3.1503488614       -3.4820689173       -2.8797297469
 H          1.4553550155       -4.1967216748       -1.2554669650
 H          0.6879310761       -2.4744768976        1.6682066961
 C         -0.2729561635       -4.0489103855        0.5844343802
 C          0.5069446406       -5.1622454471        1.2143256531
 C         -0.7899835401       -4.7191640182        1.8203138928
 H         -1.6491372783       -5.3674669883        1.7351884980
 H         -0.7596315711       -4.1537851547        2.7407531952
 H          0.5371770543       -6.1190941147        0.7153703378
 H          1.4205261716       -4.9035259760        1.7284509554
 H         -0.7924374379       -4.2477249616       -0.3456843042
