  62
        -98.94127948
 C          2.4284887982        1.0218361845       -0.5539672479
 C          3.4485823023        0.4917583741        0.2803740883
 C          3.9228879818       -0.8596807746       -0.0382354330
 C          3.3848298136       -1.5120497638       -1.0842814177
 C          3.7263116451       -2.9155308970       -1.4907002846
 C          2.7962204994       -3.9305890302       -0.8116613732
 C          2.6588888494       -3.7312016102        0.6979665263
 H          2.1427797925       -2.7863153596        0.8879005436
 H          2.0089363680       -4.5254148446        1.0722376415
 C          3.9880668658       -3.7516511503        1.4661556719
 H          3.8645337515       -4.3669920468        2.3597204874
 H          4.7613418943       -4.2183995816        0.8549586313
 C          4.4723893509       -2.3783205128        1.9350842656
 H          3.6639187345       -1.8671676302        2.4645158181
 H          5.2863684966       -2.5306136086        2.6487746639
 C          4.9956153707       -1.4444728502        0.8364673981
 H          5.7417423992       -1.9664920618        0.2341614436
 H          5.4798689050       -0.5943900685        1.3257347189
 H          1.8018299557       -3.8430427510       -1.2560959391
 H          3.1734742528       -4.9345452481       -1.0148035275
 H          3.6112999576       -2.9983040626       -2.5727234872
 H          4.7616653791       -3.1225400052       -1.2271546245
 O          2.4227198986       -0.9709147306       -1.8706009119
 C          1.9044032115        0.2912762952       -1.6204059226
 O          1.0079847009        0.6209292674       -2.4243053190
 O          3.9447519256        1.1290358968        1.2476927153
 C          1.9158049761        2.4087818211       -0.1972318692
 C          0.6399670863        2.2915445450        0.6024822822
 C          0.5987774539        2.6543849090        1.9434885922
 C         -0.5604463302        2.4931184905        2.6829128587
 C         -1.6992990656        1.9621601362        2.1038292422
 C         -1.6641948601        1.5905855072        0.7665731885
 C         -0.5074918412        1.7677481318        0.0234873564
 H         -0.4843209818        1.4596968762       -1.0116500102
 N         -2.8165257613        1.0201331141        0.1671149741
 S         -3.1622865601       -0.5456863924        0.7113000599
 O         -3.3461735258       -0.5009717457        2.1393211028
 O         -2.1647871980       -1.4784115128        0.2269302255
 C         -4.7241702593       -0.8397360654       -0.0935419445
 C         -5.8729583605       -0.3399025223        0.4888180600
 C         -7.0865065067       -0.5337884252       -0.1511513702
 C         -7.1302381651       -1.2176249536       -1.3571107161
 C         -5.9684083991       -1.7130979730       -1.9293029494
 C         -4.7511562759       -1.5219862210       -1.2942862751
 H         -3.8238186959       -1.8962815365       -1.6986178728
 H         -6.0046971588       -2.2459745932       -2.8659495747
 H         -8.0756734263       -1.3679507229       -1.8539207301
 H         -7.9924741674       -0.1516750897        0.2907861948
 H         -5.7902397712        0.1781886918        1.4296505934
 H         -2.6923010573        0.9612462478       -0.8371570450
 H         -2.5991222957        1.8064768422        2.6752785982
 H         -0.5756799854        2.7779000342        3.7241174487
 H          1.4914621605        3.0441332639        2.4110878753
 H          2.6839212418        2.8367795717        0.4608665737
 C          1.7447232744        3.3238090338       -1.3928487349
 C          1.7240510995        4.8059462844       -1.1741670762
 C          2.9009204449        4.1631148115       -1.8432064325
 H          3.0428839450        4.3158012998       -2.9024762444
 H          3.8234246411        4.0821971999       -1.2868906852
 H          1.0554045513        5.4045523166       -1.7732623601
 H          1.8491307450        5.1633269013       -0.1633231311
 H          1.0996982469        2.9177874690       -2.1607243853
