  62
        -98.93861568
 C          1.8214098620        1.0421640877       -0.1222336763
 C          2.3819444781       -0.0950833631       -0.7471164435
 C          3.8488460429       -0.2286376113       -0.6704307173
 C          4.5686759179        0.7158579574       -0.0363155993
 C          6.0631108718        0.8648319677        0.1606844004
 C          7.0050995367       -0.3105001901       -0.0873312877
 C          6.8494967007       -1.4740938589        0.8912771138
 H          7.4974698929       -2.2881479459        0.5590941971
 H          7.2000480780       -1.1501524431        1.8744801151
 C          5.4294068037       -2.0080310286        1.0624818446
 H          5.4658565048       -2.8284122277        1.7843963034
 H          4.7941975089       -1.2307257889        1.4920471903
 C          4.7706435867       -2.5390330719       -0.2092951338
 H          5.4111933095       -3.2949635173       -0.6678084493
 H          3.8353824981       -3.0247029474        0.0827107343
 C          4.4262085677       -1.4783805877       -1.2693228737
 H          5.2862022209       -1.2467060616       -1.8931143735
 H          3.6503401136       -1.8921937509       -1.9202732311
 H          8.0214065857        0.0778658869        0.0221340627
 H          6.9111064915       -0.6592057543       -1.1115147669
 H          6.3671258442        1.6938462154       -0.4879910934
 H          6.1930605312        1.2160725718        1.1892241342
 O          3.9798727817        1.8080193880        0.5348464819
 C          2.6094083292        1.9943668445        0.5201660918
 O          2.2221488662        3.0248256479        1.1071639271
 H         -1.8570842936       -0.1545288362       -1.1265192074
 C         -1.4781102325       -0.5366866237       -0.1938001860
 C         -0.3881221672        0.0536738733        0.4256807710
 C          0.0655693412       -0.4832180389        1.6286852875
 C         -0.5340074002       -1.5992128780        2.1769923970
 C         -1.6126171456       -2.1959142886        1.5471691087
 C         -2.0834611648       -1.6602622308        0.3557671107
 N         -3.1746929264       -2.2438749621       -0.3059667903
 S         -4.3422541448       -1.2672013899       -0.9910734536
 O         -5.5210926618       -2.1041328732       -1.0569430178
 O         -3.8833520681       -0.7291674012       -2.2461303956
 C         -4.5893317911        0.0473292084        0.1901984805
 C         -4.3703777734        1.3566700925       -0.1830187069
 C         -4.5434988908        2.3603905361        0.7569422635
 C         -4.9278981069        2.0377303200        2.0487157863
 C         -5.1503194578        0.7167448357        2.4072414379
 C         -4.9803029910       -0.2899129284        1.4713394132
 H         -5.1553471019       -1.3248584711        1.7159683140
 H         -5.4524282041        0.4698963025        3.4122527051
 H         -5.0567486577        2.8206469979        2.7793560191
 H         -4.3756907947        3.3886610093        0.4781076043
 H         -4.0685930628        1.5640932410       -1.1965574330
 H         -3.5813614382       -3.0374484199        0.1666178658
 H         -2.0769831453       -3.0748191128        1.9677538401
 H         -0.1610594692       -2.0092741462        3.1034343412
 H          0.9097784951       -0.0185846182        2.1202718673
 C          0.3191038800        1.2582224345       -0.1453022198
 H          0.1253041304        2.1166746029        0.5147020140
 C         -0.1254183742        1.6136990265       -1.5488541142
 C         -1.2909835811        2.5287942624       -1.7664897828
 C          0.1006252300        3.0083959433       -2.0474231133
 H          0.4046599394        3.1462188610       -3.0742539577
 H          0.5488178559        3.7118497168       -1.3606034612
 H         -1.9462826182        2.3346848084       -2.6028937870
 H         -1.7882095265        2.9164302373       -0.8903836393
 H          0.0271273654        0.8030653040       -2.2528322621
 O          1.6948535416       -0.9627794252       -1.3468643338
