  62
        -98.94792844
 C         -0.9322318039       -1.0675981866        0.7033482890
 C         -1.4638038852       -0.9038067946       -0.5986915691
 C         -2.1899777962        0.3501496673       -0.8345347251
 C         -2.2764862721        1.2686221651        0.1441064189
 C         -2.9513181901        2.6104920197        0.0429935486
 C         -4.4676899907        2.5682996087        0.2769769636
 C         -5.2854016970        1.9504685188       -0.8577474430
 H         -6.3335903623        2.1841663198       -0.6609973091
 H         -5.0163863606        2.4290256882       -1.8000291934
 C         -5.1360651472        0.4285218640       -0.9908502864
 H         -4.7106808103        0.0218584361       -0.0706696223
 H         -6.1219319169       -0.0245651401       -1.1166399206
 C         -4.2767565333       -0.0230462313       -2.1720724191
 H         -4.7594474484        0.2642642137       -3.1089269005
 H         -4.2071437209       -1.1135240624       -2.1497660358
 C         -2.8498373581        0.5410954775       -2.1658135331
 H         -2.2561057622       -0.0006381935       -2.9068117557
 H         -2.8585750740        1.5966885338       -2.4389663895
 H         -4.6621787612        2.0241366843        1.2038686121
 H         -4.8036454088        3.5981650574        0.4180603444
 H         -2.5038499311        3.2442156349        0.8118542115
 H         -2.7424303940        3.0513550008       -0.9327713371
 O         -1.7218571272        1.0868827606        1.3726353094
 C         -1.0370333553       -0.0786607681        1.6798516055
 O         -0.5702323483       -0.1103060694        2.8365106356
 H          1.4575036832       -0.3209380468        0.3378927502
 C          1.7771405485       -1.2461436573       -0.1194918849
 C          1.0632608057       -2.4100487570        0.1352109074
 C          1.4969877332       -3.5941029783       -0.4465679332
 C          2.6000885427       -3.5975140102       -1.2831672903
 C          3.2813765573       -2.4280384309       -1.5667559679
 C          2.8615073194       -1.2396832189       -0.9798771496
 N          3.5277915297       -0.0283384216       -1.2220411793
 S          2.6357658363        1.3820359810       -1.3592944400
 O          1.3520710647        1.1551951583       -1.9809039215
 O          3.5214277149        2.2941916349       -2.0546429663
 C          2.4250710707        1.9539913289        0.3122500988
 C          3.4999299461        1.9167893761        1.1778993992
 C          3.3299747979        2.3832646107        2.4714366065
 C          2.0989947072        2.8792974808        2.8732173416
 C          1.0324683198        2.9175822865        1.9891656110
 C          1.1961118380        2.4526606879        0.6946028510
 H          0.3882989393        2.4456426429       -0.0218123693
 H          0.0710148736        3.2893999306        2.3053164803
 H          1.9648954904        3.2340332860        3.8828227111
 H          4.1552160480        2.3544328367        3.1646282921
 H          4.4395677443        1.5201370065        0.8313280217
 H          4.2660165490       -0.0749889867       -1.9095439670
 H          4.1268927237       -2.4298160370       -2.2377177407
 H          2.9247873565       -4.5230667673       -1.7340162920
 H          0.9661031148       -4.5120661928       -0.2544175243
 C         -0.1380315042       -2.3150663664        1.0453754557
 H          0.2245225794       -2.1727170106        2.0743887871
 C         -1.0255667027       -3.5415323421        1.0045131138
 C         -0.7424346636       -4.7107004414        1.8980625758
 C         -1.9194192432       -3.8252059614        2.1730490481
 H         -2.9111411428       -4.2074374614        1.9830603561
 H         -1.8663607246       -3.1468503858        3.0123664802
 H         -0.9291476726       -5.7050474478        1.5212671469
 H          0.1076281991       -4.6403974359        2.5596577139
 H         -1.4202140747       -3.7347915799        0.0136071319
 O         -1.3428742348       -1.7587538999       -1.5145102342
