  62
        -98.93877188
 C          1.9552778106        1.3216732683       -0.0497456281
 C          2.5958933511        0.6774407643        1.0316238457
 C          3.7885270143       -0.1330831421        0.7168331923
 C          4.1846482206       -0.2267372312       -0.5664429540
 C          5.3336809401       -1.0215319906       -1.1268966934
 C          5.0255933935       -2.5257535839       -1.2149765376
 C          4.3142189078       -3.1107077366        0.0027210470
 H          3.3843523690       -2.5637856970        0.1711177415
 H          4.0424334432       -4.1427291618       -0.2351505195
 C          5.1346415662       -3.1288086049        1.2904010214
 H          4.5330175903       -3.6318273708        2.0520395400
 H          6.0348242217       -3.7267349765        1.1314068876
 C          5.5515649210       -1.7625243166        1.8377444308
 H          6.3785005767       -1.3496643910        1.2665292666
 H          5.9245678791       -1.9200708107        2.8540812794
 C          4.4210194963       -0.7436322741        1.9445960592
 H          4.7727544630        0.1023741839        2.5476848455
 H          3.5975618608       -1.1832776677        2.5191136079
 H          5.9610658433       -3.0612625159       -1.3846874216
 H          4.3819890174       -2.6873327312       -2.0832795123
 H          5.5128377500       -0.6448255335       -2.1362635432
 H          6.2310370328       -0.8414485256       -0.5423995409
 O          3.5189241672        0.3927983300       -1.5825238189
 C          2.3981679727        1.1730136080       -1.3635738096
 O          1.9021223145        1.6659521397       -2.3936304738
 O          2.1838821236        0.7620408042        2.2215658277
 C          0.7273274028        2.1720084699        0.2204972932
 C         -0.4718437033        1.5784973306       -0.4774365330
 C         -1.3398636236        2.3125080756       -1.2740421531
 C         -2.4139758521        1.6957990090       -1.8937845335
 C         -2.6528216056        0.3450736279       -1.7250853394
 C         -1.8033054837       -0.3943579039       -0.9106084901
 C         -0.7297072662        0.2251759399       -0.2908235995
 H         -0.0667517459       -0.3536428613        0.3405072895
 N         -2.0481068854       -1.7633507261       -0.7136401169
 S         -3.6241886703       -2.2503826662       -0.4349503059
 O         -3.5120256355       -3.4635414195        0.3443390553
 O         -4.3244126642       -2.3726159279       -1.6892997540
 C         -4.3548180010       -0.9452882558        0.5381838205
 C         -3.7712496133       -0.6321692073        1.7499403535
 C         -4.3054297239        0.3994725361        2.5043267894
 C         -5.4091278705        1.0967240729        2.0368695340
 C         -5.9874783001        0.7660471495        0.8214859563
 C         -5.4556557445       -0.2634521640        0.0614180625
 H         -5.8708408788       -0.5510404171       -0.8907237273
 H         -6.8469596788        1.3082316324        0.4617744993
 H         -5.8198688086        1.9017457216        2.6254420629
 H         -3.8561834993        0.6571515785        3.4500720716
 H         -2.9160321299       -1.1951077863        2.0887457228
 H         -1.4046185240       -2.2111449297       -0.0785568491
 H         -3.4725580898       -0.1520679019       -2.2177505385
 H         -3.0723987224        2.2758934111       -2.5218954239
 H         -1.1699448217        3.3659790130       -1.4212516867
 H          0.5587028248        2.1015481485        1.3054694794
 C          0.9903233627        3.6186655872       -0.1386182215
 C          0.2537563333        4.7164969748        0.5673608882
 C          1.7081248250        4.4895751619        0.8471022058
 H          2.4256605263        5.2055404226        0.4752650653
 H          1.9863706310        4.0450775659        1.7916559573
 H         -0.0271923086        5.5938041781        0.0046223669
 H         -0.4577848815        4.4322514677        1.3275067645
 H          1.2291623445        3.7504630824       -1.1878036680
