  62
        -98.93647647
 C          2.3314006619       -1.2883988142        0.0699760021
 C          3.1212348409       -0.5688982969       -0.8563174978
 C          4.0021292585        0.4613823702       -0.2901906885
 C          4.0140287768        0.6680408837        1.0393219063
 C          4.8906460771        1.6339294695        1.7923768859
 C          4.6587941111        3.1313909512        1.5125349519
 C          5.5720873741        3.7221313334        0.4311790706
 H          5.8847280957        4.7207171480        0.7429492123
 H          6.4768808091        3.1166130055        0.3665659618
 C          4.9519232058        3.8641571546       -0.9622136472
 H          4.2986022180        4.7396888553       -0.9752171329
 H          5.7611620116        4.0480079597       -1.6721291999
 C          4.1282263311        2.6723115098       -1.4502311096
 H          3.1622207232        2.6601817716       -0.9388975572
 H          3.9119458627        2.8176932419       -2.5107677434
 C          4.7993828576        1.2999462836       -1.2465727861
 H          4.8256422613        0.7550358720       -2.1924782397
 H          5.8214612681        1.4208266074       -0.8908520506
 H          4.8529400143        3.6603307049        2.4468932092
 H          3.6116346159        3.2971513789        1.2603143804
 H          4.6979210776        1.4355651526        2.8486157799
 H          5.9354460916        1.3864502272        1.5914903566
 O          3.2257977152       -0.0380667516        1.8954924388
 C          2.3592879749       -1.0202468822        1.4387127571
 O          1.6870449197       -1.5681244684        2.3313997911
 H          0.1958179796       -0.0138991849       -0.6886716537
 C         -0.4907466377       -0.7590930551       -0.3036651535
 C         -0.0324839160       -2.0545078211       -0.0952955015
 C         -0.9296304801       -3.0017709451        0.3801486524
 C         -2.2397817579       -2.6506681045        0.6572610543
 C         -2.6846944619       -1.3560802425        0.4658043568
 C         -1.8001442407       -0.4028030205       -0.0219408148
 N         -2.2435132746        0.9194007676       -0.2148878445
 S         -3.5890393794        1.1501289258       -1.1968828475
 O         -3.6984068699        0.1090585798       -2.1927630882
 O         -3.4669974392        2.5039610110       -1.6922825342
 C         -4.9658979310        1.0654112422       -0.0719161782
 C         -5.0037753636        1.9591877672        0.9803486138
 C         -6.0728802493        1.9107093907        1.8606084244
 C         -7.0814008881        0.9770931695        1.6728461090
 C         -7.0305221583        0.0893538783        0.6090357042
 C         -5.9630816836        0.1315054128       -0.2744534816
 H         -5.8775972707       -0.5415007311       -1.1126034344
 H         -7.8157095761       -0.6351947833        0.4646046726
 H         -7.9121644299        0.9417856217        2.3597773987
 H         -6.1159940726        2.5994267420        2.6889732308
 H         -4.2024746568        2.6712457165        1.0875884449
 H         -1.5060460614        1.5532410732       -0.4875212751
 H         -3.7014158733       -1.0772289269        0.6891646956
 H         -2.9233226430       -3.3967422876        1.0326147778
 H         -0.6022855535       -4.0161651163        0.5376041068
 C          1.4021204803       -2.3737600988       -0.4393397160
 H          1.4985659598       -2.3497915506       -1.5358602401
 C          1.8568631159       -3.7302996163        0.0578024579
 C          1.6166287350       -4.9590961023       -0.7659253083
 C          3.0022283215       -4.4045945736       -0.6341122550
 H          3.7215268152       -4.9432901627       -0.0358011292
 H          3.4350337915       -3.8968353967       -1.4839019890
 H          1.3865827305       -5.8836043673       -0.2581847308
 H          1.1104382536       -4.8362974976       -1.7116100642
 H          1.8041107890       -3.8152188133        1.1373788743
 O          3.0942568249       -0.7793810079       -2.1000635792
