  62
        -98.94318166
 C         -1.8285476088       -0.0734278276        0.3036378511
 C         -2.7491360601       -0.6581373975       -0.6007911666
 C         -4.0238911221        0.0552596810       -0.7633668536
 C         -4.2427186158        1.2074317060       -0.1061777775
 C         -5.4786778086        2.0607690530       -0.1957298692
 C         -6.6192789536        1.6057532254        0.7251382078
 C         -7.3338500228        0.3247299185        0.2925617471
 H         -8.2398397260        0.2442942938        0.8966193571
 H         -7.6443268124        0.4174335855       -0.7486296282
 C         -6.5044899848       -0.9543110122        0.4733386849
 H         -5.6724419904       -0.7558333000        1.1529062959
 H         -7.1217596758       -1.7250191695        0.9404511580
 C         -5.9529493537       -1.5409963531       -0.8260409139
 H         -5.3521511850       -2.4192108338       -0.5770844688
 H         -6.7799414667       -1.8670294505       -1.4606494824
 C         -5.0716094872       -0.5763033865       -1.6300359431
 H         -4.5593119393       -1.1469727460       -2.4082039413
 H         -5.6856924620        0.1890345711       -2.1038879341
 H         -6.2228057115        1.4793055131        1.7353471857
 H         -7.3541054548        2.4135997179        0.7559964896
 H         -5.1807601307        3.0699188900        0.0973921060
 H         -5.8309989633        2.0887570178       -1.2272719886
 O         -3.3209737931        1.7545077119        0.7309371527
 C         -2.1133621842        1.1218296821        0.9709063594
 O         -1.3848768590        1.7148149187        1.7933189898
 O         -2.5441127088       -1.7174743756       -1.2476918157
 C         -0.4707975285       -0.6887883858        0.6120222259
 C          0.5033998149       -0.3771836436       -0.4992046543
 C          0.4368098425       -1.0124375877       -1.7354343279
 C          1.3246402945       -0.6798160828       -2.7415483075
 C          2.3042816583        0.2751415896       -2.5329179738
 C          2.3774930049        0.9184299716       -1.3037425753
 C          1.4783180997        0.5905052479       -0.2980829310
 H          1.5331725380        1.1157002007        0.6441550136
 N          3.3596675313        1.8971205089       -1.0626103408
 S          4.3037467998        1.7552809380        0.3122121208
 O          3.5361673873        2.0836587850        1.4855137476
 O          5.4591348207        2.5849912391        0.0494196725
 C          4.7760562080        0.0359398411        0.3350093058
 C          5.7950151994       -0.3739532956       -0.5028526171
 C          6.1209629291       -1.7192379150       -0.5538202708
 C          5.4183903175       -2.6285640848        0.2223774101
 C          4.3994715689       -2.2013549403        1.0593900723
 C          4.0720309912       -0.8558721429        1.1178212952
 H          3.2902039217       -0.4806982369        1.7583706204
 H          3.8552405797       -2.9096494162        1.6634885814
 H          5.6672919383       -3.6769798590        0.1780887555
 H          6.9166463066       -2.0547215657       -1.1992036752
 H          6.3215982849        0.3668161351       -1.0825648153
 H          3.9407578145        2.0984285755       -1.8641530359
 H          2.9992179363        0.5316538964       -3.3182345919
 H          1.2571298302       -1.1742917006       -3.6986002654
 H         -0.3368662373       -1.7428247901       -1.9105857085
 H         -0.1160475510       -0.1752826053        1.5162555356
 C         -0.5518271315       -2.1735569557        0.9053358854
 C          0.5296323611       -2.8130384579        1.7201931138
 C         -0.8371482598       -2.6235621394        2.3051865024
 H         -1.4649074090       -3.4899587426        2.4500332097
 H         -0.9688027328       -1.8599338310        3.0588053404
 H          0.8446859594       -3.8125377335        1.4637446067
 H          1.3221144816       -2.1753987335        2.0816092948
 H         -0.9911769010       -2.7514990728        0.1040220400
