  62
        -98.94040595
 C         -2.4443196193       -1.0492249512        0.0406735554
 C         -2.4625221798        0.3502501535        0.2516850758
 C         -3.7729172704        0.9282066764        0.5856805948
 C         -4.8439755266        0.1199895915        0.6890303100
 C         -6.2439412931        0.5817296977        0.9708322164
 C         -7.0062423132        0.8694760079       -0.3301512608
 C         -6.2386035352        1.7541096910       -1.3124341494
 H         -5.3567694568        1.2141784355       -1.6650946804
 H         -6.8840615154        1.9151479750       -2.1785861794
 C         -5.8045510993        3.1102556001       -0.7389757939
 H         -6.0238591888        3.8878371719       -1.4736522900
 H         -6.3847412048        3.3371957998        0.1560628549
 C         -4.3129945825        3.2133796771       -0.4143371305
 H         -3.7256402536        2.8977412803       -1.2805672043
 H         -4.0771299529        4.2643001989       -0.2262337703
 C         -3.8378867363        2.4134838355        0.8053849406
 H         -4.4655919732        2.6492114007        1.6672306638
 H         -2.8135163138        2.7261794096        1.0294810527
 H         -7.2216432005       -0.0814406693       -0.8226842038
 H         -7.9557368666        1.3438681489       -0.0759277577
 H         -6.7621491692       -0.2074551713        1.5179983757
 H         -6.2078747857        1.4765359502        1.5889963656
 O         -4.7807169622       -1.2232059872        0.5012936787
 C         -3.5868587256       -1.8392576122        0.1649545966
 O         -3.6686238277       -3.0751872339        0.0148162438
 O         -1.4393858274        1.0803159008        0.1691386479
 C         -1.1468698792       -1.7396001623       -0.3364238669
 C         -0.0764206967       -1.4552511822        0.6892861594
 C         -0.3857263391       -1.5760015197        2.0417407257
 C          0.5669077112       -1.3216137818        3.0086354622
 C          1.8487110148       -0.9446152485        2.6487560117
 C          2.1749958210       -0.8426025657        1.3017701927
 C          1.2159717938       -1.1036189626        0.3324224756
 H          1.4932802382       -1.0103624631       -0.7036452128
 N          3.4883077566       -0.5201304690        0.9168486536
 S          3.7738986143        0.3832027267       -0.4796198651
 O          3.0380061287        1.6270626067       -0.4442536169
 O          3.5628368158       -0.4557694920       -1.6320601388
 C          5.5194746821        0.6932832851       -0.2808164997
 C          5.9479388354        1.9253260476        0.1750749488
 C          7.3061305447        2.1403233111        0.3506465157
 C          8.2074059307        1.1241635142        0.0716411897
 C          7.7624328897       -0.1070870745       -0.3869064829
 C          6.4063115824       -0.3278539172       -0.5662731023
 H          6.0148424049       -1.2638923496       -0.9287502854
 H          8.4665841036       -0.8936348370       -0.6054048596
 H          9.2635265017        1.2938234730        0.2098201948
 H          7.6550924240        3.0975097199        0.7033053818
 H          5.2110619671        2.6875734473        0.3719620996
 H          4.0365053725       -0.1620038151        1.6875810013
 H          2.5906782249       -0.7360199684        3.4045979926
 H          0.3081500615       -1.4094956364        4.0532948448
 H         -1.3905691350       -1.8618638020        2.3235069204
 H         -1.3592158638       -2.8192956987       -0.3177690899
 C         -0.7441092534       -1.3493946774       -1.7437588486
 C          0.0249731132       -2.3054489839       -2.6033219806
 C         -1.4137424445       -2.0161420428       -2.9062080001
 H         -1.6508194308       -1.4215261264       -3.7757477342
 H         -2.1469540144       -2.7778063458       -2.6828293048
 H          0.7851453409       -1.9082352190       -3.2595719787
 H          0.2692311449       -3.2686904142       -2.1812771053
 H         -0.5207158108       -0.2912675312       -1.8343318166
