  62
        -98.93950900
 C         -1.3934159776       -0.8354477547       -0.1482335576
 C         -2.5073124798       -0.8224072096        0.7297467818
 C         -3.4717893322        0.2777100746        0.5768354640
 C         -3.2508909814        1.2149838819       -0.3603808373
 C         -4.0612323081        2.4494715241       -0.6691842130
 C         -5.5895359666        2.3139669302       -0.6685957206
 C         -6.1190029735        0.9576435309       -1.1569839520
 H         -6.8704199607        1.1276255536       -1.9302474973
 H         -5.3095128172        0.3825687424       -1.6097323248
 C         -6.7685425321        0.1340349391       -0.0424645278
 H         -7.3897017734        0.7957278559        0.5650769592
 H         -7.4285253544       -0.6101529699       -0.4946350624
 C         -5.7974175676       -0.6159962899        0.8683852133
 H         -5.3299109314       -1.4357775699        0.3164916088
 H         -6.3756444402       -1.0648416751        1.6795645450
 C         -4.6711967288        0.2336155256        1.4797677346
 H         -5.0216781364        1.2317109503        1.7316882915
 H         -4.3380495733       -0.2595647233        2.3971042880
 H         -5.9715784664        2.5055745765        0.3330916979
 H         -5.9757468453        3.1089597993       -1.3089056356
 H         -3.7683868253        3.2309161279        0.0387395388
 H         -3.7219391454        2.7715299527       -1.6569503437
 O         -2.1678042858        1.1698891452       -1.1831219644
 C         -1.2133339324        0.1652977905       -1.1027926416
 O         -0.2958924472        0.2925980394       -1.9366901240
 H          0.8554578826        0.4243493893        0.3951782608
 C          1.2388560572       -0.3434221324        1.0477126354
 C          0.6907356197       -1.6164066699        1.0198600476
 C          1.1875674242       -2.5764029936        1.8950686959
 C          2.2079767899       -2.2660717505        2.7748029263
 C          2.7591212022       -0.9975497087        2.7927343502
 C          2.2666894536       -0.0281189006        1.9262400926
 N          2.7893997611        1.2720765398        1.9424135477
 S          2.9407742892        2.1532060509        0.5281404536
 O          3.8936591045        3.1898903220        0.8690947334
 O          1.6498285758        2.6113099648        0.0826589862
 C          3.6883052205        1.0215163578       -0.6293440370
 C          5.0152905552        0.6969394526       -0.4163587603
 C          5.6292506755       -0.2136185002       -1.2591088794
 C          4.9072539552       -0.7859633427       -2.2960495893
 C          3.5797216378       -0.4454378212       -2.4983211628
 C          2.9571331347        0.4670131937       -1.6586624528
 H          1.9214888796        0.7391101615       -1.7935597472
 H          3.0142080637       -0.8851675000       -3.3048709787
 H          5.3815148436       -1.4990506860       -2.9517837938
 H          6.6635775754       -0.4758959813       -1.1057192626
 H          5.5443647551        1.1756591718        0.3916844172
 H          3.5857721351        1.4019769169        2.5488141282
 H          3.5540820719       -0.7515174061        3.4796848043
 H          2.5802063571       -3.0183206312        3.4531288850
 H          0.7567162591       -3.5659856826        1.8947830451
 C         -0.4067716165       -1.9716659767        0.0417200928
 H         -0.9898405892       -2.7903221307        0.4872927470
 C          0.2188710644       -2.4737206976       -1.2458546630
 C          0.6537480435       -3.9032056562       -1.3534430343
 C         -0.5431697748       -3.4241778682       -2.1177837377
 H         -0.4694457235       -3.3099191826       -3.1886255199
 H         -1.5216567966       -3.7347443006       -1.7806899778
 H          1.5581956703       -4.1237082238       -1.8986068500
 H          0.4821465102       -4.5492982397       -0.5064437844
 H          0.8245903001       -1.7261841568       -1.7402079933
 O         -2.6867306735       -1.7028907325        1.6142258814
