  62
        -98.94777553
 C          0.7801876519        1.2713137566        0.0209055939
 C          1.4866161897        0.6143838856        1.0555244524
 C          2.4034191030       -0.4474221682        0.6259403494
 C          2.4762216291       -0.7795161002       -0.6758071009
 C          3.3799119505       -1.8228639009       -1.2742897871
 C          4.8013104457       -1.3171334902       -1.5602443625
 C          5.6809578016       -1.1104156403       -0.3262890083
 H          5.6676950194       -2.0133527448        0.2848616461
 H          6.7041546673       -0.9738330684       -0.6819753776
 C          5.2945233922        0.1011821410        0.5337162802
 H          6.1936349759        0.6634726155        0.7959444730
 H          4.6562983981        0.7720476402       -0.0460508516
 C          4.5834326962       -0.2488341060        1.8411543729
 H          5.2618120048       -0.8071174714        2.4903008803
 H          4.3228362581        0.6829878494        2.3496806246
 C          3.2971527237       -1.0654204050        1.6587010904
 H          3.5442054842       -2.0916654255        1.3881611015
 H          2.7562139616       -1.0705587597        2.6084719635
 H          4.7340151751       -0.3814419550       -2.1198386822
 H          5.2861168991       -2.0546871806       -2.2038539042
 H          3.4303611900       -2.6914968813       -0.6183501008
 H          2.9252630546       -2.1197129908       -2.2211388623
 O          1.7078307918       -0.1865919828       -1.6271323842
 C          0.8723510660        0.8749916480       -1.3132984565
 O          0.2754001261        1.3649624396       -2.2902103652
 H         -1.5253087151        0.2129456565        0.4789700730
 C         -2.0948704517        1.0074685034        0.0194324930
 C         -1.5100138551        2.2580105283       -0.1341306821
 C         -2.2586056968        3.2750200980       -0.7128805888
 C         -3.5542875157        3.0355364221       -1.1361673435
 C         -4.1310312405        1.7889284622       -0.9841758708
 C         -3.3919224273        0.7646413753       -0.4011205538
 N         -3.9369349750       -0.5168139844       -0.2672456270
 S         -3.3871072163       -1.6115246433        0.8579076501
 O         -4.4106549707       -2.6355813831        0.8790067690
 O         -3.0996311283       -0.9875121269        2.1284474956
 C         -1.9117059411       -2.3017386124        0.1426526207
 C         -0.7930823533       -2.4836574336        0.9300339350
 C          0.3212662303       -3.0966851089        0.3806372387
 C          0.2989628882       -3.5105139290       -0.9417055739
 C         -0.8275242251       -3.3080967617       -1.7236926906
 C         -1.9475524729       -2.7032951950       -1.1776724459
 H         -2.8437204616       -2.5387756023       -1.7524836894
 H         -0.8368693546       -3.6226419343       -2.7549057041
 H          1.1644974760       -3.9946211853       -1.3649862505
 H          1.1973613832       -3.2471582256        0.9902924109
 H         -0.8098238594       -2.1359433186        1.9516173000
 H         -4.9172527729       -0.6115041107       -0.4831250451
 H         -5.1406858917        1.6027309996       -1.3165949906
 H         -4.1240296315        3.8326395698       -1.5891817616
 H         -1.8274487676        4.2547546828       -0.8368814242
 C         -0.1010556402        2.4562338517        0.3656614718
 H         -0.1339870647        2.4888160799        1.4659000095
 C          0.5416859736        3.7331668985       -0.1395055524
 C          0.3643392959        5.0228345165        0.6031184954
 C          1.6864067554        4.3183507164        0.6301455884
 H          2.5130733365        4.7458444804        0.0826758321
 H          1.9796319772        3.8130417426        1.5389593975
 H          0.2855059868        5.9383549858        0.0362967762
 H         -0.2360717476        5.0050231633        1.5002150522
 H          0.5977020875        3.7668609822       -1.2221685061
 O          1.3674041167        0.9092555194        2.2761063171
