  62
        -98.94443721
 C         -2.0037067972       -0.9641631387       -0.0696543471
 C         -2.6360600442       -0.3597099969        1.0498214591
 C         -3.2785537126        0.9365278601        0.8176068467
 C         -3.2175564006        1.4982239751       -0.4029609287
 C         -3.7872815772        2.8345454235       -0.7947346890
 C         -5.2794877168        2.8002872188       -1.1527364180
 C         -6.2284231971        2.6172224353        0.0323701159
 H         -5.9939326501        3.3550154394        0.8002136140
 H         -7.2361196229        2.8313466780       -0.3289559621
 C         -6.2118226512        1.2096910224        0.6446964405
 H         -5.7483157109        0.5130306570       -0.0575752019
 H         -7.2375614600        0.8696868373        0.8034490216
 C         -5.4887377807        1.1111380564        1.9878841241
 H         -5.5063461042        0.0672999565        2.3108562463
 H         -6.0204419540        1.7044531501        2.7348695393
 C         -4.0253023159        1.5706415791        1.9522522720
 H         -3.9727824833        2.6568497101        1.8795520916
 H         -3.5433118098        1.2580441132        2.8816961686
 H         -5.5180578734        3.7486758187       -1.6396419595
 H         -5.4454070507        2.0023878165       -1.8802313598
 H         -3.6202942497        3.5515422401        0.0098624131
 H         -3.2275901728        3.1639320381       -1.6731255545
 O         -2.5903805934        0.8985693335       -1.4473597746
 C         -1.9730126160       -0.3368600474       -1.3149315860
 O         -1.4537800610       -0.7399670325       -2.3773289096
 O         -2.6601536190       -0.8858987698        2.1939240613
 C         -1.3147266685       -2.2965509305        0.1836464715
 C          0.1575011302       -2.0597094159        0.4209355947
 C          0.7318551124       -2.2908335177        1.6653257810
 C          2.0686996806       -2.0103897780        1.8892673828
 C          2.8545483949       -1.4772756395        0.8826910920
 C          2.2859409912       -1.2357607421       -0.3604410745
 C          0.9557715598       -1.5443256543       -0.5909265734
 H          0.5217002894       -1.3379544366       -1.5583199200
 N          3.0699034033       -0.6254310379       -1.3735729828
 S          3.2432468501        1.0359310796       -1.1243472208
 O          2.0608514933        1.6052964888       -0.5141198687
 O          3.6338482071        1.5865944004       -2.4040503091
 C          4.6152579671        1.1335182772        0.0050869047
 C          4.4021676849        1.5404645772        1.3073824343
 C          5.4807892735        1.5941648325        2.1765340880
 C          6.7453565146        1.2415803823        1.7300146687
 C          6.9426384645        0.8368284696        0.4179597313
 C          5.8688005623        0.7809260678       -0.4561248734
 H          5.9751530469        0.4784002225       -1.4844525869
 H          7.9275790490        0.5644547912        0.0746523088
 H          7.5822038727        1.2834484060        2.4091496708
 H          5.3287421749        1.9083612842        3.1966004658
 H          3.3998975451        1.8000573626        1.6090362569
 H          2.6663172813       -0.7572443034       -2.2924069641
 H          3.8937157162       -1.2457898930        1.0505883644
 H          2.5005549723       -2.1985756490        2.8601461587
 H          0.1148726854       -2.6724736382        2.4656779580
 H         -1.7489424973       -2.6706224779        1.1205816613
 C         -1.5483516203       -3.3295489468       -0.8996821955
 C         -1.3541830500       -4.7786828322       -0.5713888861
 C         -2.7338295753       -4.2400334548       -0.7995787117
 H         -3.2527137296       -4.5092835036       -1.7072584819
 H         -3.3836242915       -4.1216897140        0.0552588856
 H         -0.9228190057       -5.4224695038       -1.3222634821
 H         -1.0690454711       -5.0277329358        0.4393943854
 H         -1.2647929063       -2.9930230026       -1.8882307162
