  62
        -98.94655045
 C         -1.0866513104       -1.8087014570       -0.2362025582
 C         -1.2202619467       -0.6120810632       -0.9850571722
 C         -2.5408988788        0.0367459063       -0.9298723629
 C         -3.5247849345       -0.5135462450       -0.1979425887
 C         -4.9008363686        0.0614548396       -0.0286745232
 C         -4.9801977834        0.9790121182        1.1985457303
 C         -3.8675774769        2.0256419402        1.2639783360
 H         -4.0547375658        2.6459040914        2.1436476642
 H         -2.9072819196        1.5294276648        1.4261560635
 C         -3.7613735161        2.9206339558        0.0217911388
 H         -3.6300234406        3.9545731951        0.3482274432
 H         -4.6883565227        2.8750538250       -0.5520660329
 C         -2.5769596383        2.5886848618       -0.8880037919
 H         -2.4446911192        3.4186745437       -1.5887100948
 H         -1.6707073780        2.5193195161       -0.2798768278
 C         -2.7143119977        1.3048841666       -1.7173140721
 H         -3.6740703852        1.3064062118       -2.2392839072
 H         -1.9151087658        1.3030644478       -2.4644730103
 H         -4.9218701192        0.3618305130        2.0981339035
 H         -5.9504561194        1.4795350549        1.1921679085
 H         -5.1695646587        0.6150985569       -0.9263204457
 H         -5.6025412473       -0.7644238550        0.1018922768
 O         -3.3624480866       -1.6616693189        0.5082911031
 C         -2.1468293072       -2.3235683608        0.5145517374
 O         -2.1362923368       -3.3604499004        1.2104608699
 H          0.7027997122       -0.0249381571        0.4962225857
 C          1.3044098829       -0.7141389035        1.0639797618
 C          1.1558889931       -2.0789204367        0.8761545479
 C          1.9350378943       -2.9452031399        1.6356820933
 C          2.8406110082       -2.4507893923        2.5567764027
 C          2.9932101288       -1.0872994370        2.7349780723
 C          2.2135305973       -0.2132247584        1.9850331914
 N          2.3329173206        1.1687721048        2.1469971261
 S          1.6806102443        2.2761322218        1.0933884664
 O          2.3070349618        3.5255853643        1.4795225134
 O          0.2410475597        2.2578512577        1.1778701025
 C          2.2270138454        1.8460772245       -0.5494601574
 C          1.4622710525        2.2752582849       -1.6139246229
 C          1.8814541643        1.9883441871       -2.9023873870
 C          3.0519956058        1.2758763977       -3.1038085704
 C          3.8131403758        0.8565426420       -2.0241614295
 C          3.4030527444        1.1473507284       -0.7332102376
 H          3.9794193729        0.8240707314        0.1183176931
 H          4.7222136735        0.2984710758       -2.1822576048
 H          3.3702204446        1.0420965564       -4.1078020048
 H          1.2851922466        2.3104560175       -3.7409234526
 H          0.5465057635        2.8088604637       -1.4175247845
 H          3.1180871670        1.5090824916        2.6783903712
 H          3.6995058115       -0.6999438333        3.4528153171
 H          3.4367140424       -3.1333484022        3.1429323552
 H          1.8182411892       -4.0109215264        1.5098050125
 C          0.1998365751       -2.6131789176       -0.1649264460
 H         -0.0971285955       -3.6257725979        0.1423582477
 C          0.9223169981       -2.7070702031       -1.4975522063
 C          1.7693098441       -3.9045598156       -1.7997625059
 C          0.4660385821       -3.7085946089       -2.5135380272
 H          0.4785177644       -3.4258876120       -3.5551411777
 H         -0.3636573824       -4.3470848735       -2.2455050236
 H          1.8227952308       -4.6867342420       -1.0580898057
 H          2.6844758313       -3.7582912682       -2.3521433282
 H          1.2574357494       -1.7449045371       -1.8631670428
 O         -0.3044368435       -0.0952387280       -1.6767462540
