  62
        -98.94136505
 C         -2.2018406360        0.7119699949        0.3567874236
 C         -3.4054875099        0.8990819813       -0.3693097637
 C         -4.1109294278       -0.3207546882       -0.7810136506
 C         -3.5701009521       -1.5192882560       -0.4958320126
 C         -4.1991415619       -2.8429851226       -0.8187947468
 C         -5.0781076741       -3.3385907995        0.3382510953
 C         -6.0571744307       -2.2887808333        0.8638175295
 H         -6.6437731171       -2.7592710564        1.6557876027
 H         -5.4929446810       -1.4735227073        1.3223150242
 C         -7.0028073252       -1.7137633964       -0.1998697558
 H         -8.0137067411       -1.6801694926        0.2117262768
 H         -7.0284515581       -2.3730365856       -1.0682314017
 C         -6.6593351065       -0.2934156490       -0.6526502510
 H         -7.5027754813        0.0922099446       -1.2313918165
 H         -6.5405104426        0.3512621410        0.2217608158
 C         -5.4057783898       -0.1561780146       -1.5260602774
 H         -5.4606473927       -0.8564556885       -2.3621163118
 H         -5.3911422146        0.8601797169       -1.9303653722
 H         -4.4272255727       -3.6424792977        1.1612663570
 H         -5.6303168179       -4.2169774367       -0.0005931234
 H         -4.7939943258       -2.7446147982       -1.7248295557
 H         -3.4021696274       -3.5673450550       -0.9957879510
 O         -2.3964518812       -1.6605738945        0.1695172187
 C         -1.6846559889       -0.5570394983        0.6182023185
 O         -0.6376231006       -0.8488121341        1.2279149604
 H          1.0897182778        1.0355449155        1.3437551173
 C          1.0193572626        1.4942411596        0.3702967222
 C         -0.1856781019        2.0352666739       -0.0492579590
 C         -0.2591805740        2.5923091389       -1.3229699609
 C          0.8462066481        2.6039118042       -2.1528042108
 C          2.0451546832        2.0524744744       -1.7351096476
 C          2.1247906863        1.4864550007       -0.4703405567
 N          3.3373559190        0.9117050216       -0.0350104558
 S          4.0813479223       -0.1528700486       -1.1176739911
 O          4.8151190688        0.6257763596       -2.0849792710
 O          3.1129118688       -1.0791335885       -1.6622711729
 C          5.2191625997       -0.9971655659       -0.0374734786
 C          4.7886592808       -2.1259628420        0.6339536117
 C          5.6645347225       -2.7669691907        1.4959011417
 C          6.9468344274       -2.2688608675        1.6731935743
 C          7.3633190645       -1.1341493071        0.9932710634
 C          6.4930828018       -0.4887658811        0.1290862419
 H          6.7725361426        0.3909968581       -0.4264787450
 H          8.3613519958       -0.7515286634        1.1331105356
 H          7.6253912809       -2.7706318179        2.3447827688
 H          5.3429924902       -3.6499967825        2.0245437675
 H          3.7851023042       -2.4827792459        0.4610052734
 H          3.2186149851        0.4558126532        0.8607743202
 H          2.9094915417        2.0333204471       -2.3791345818
 H          0.7745573066        3.0390984355       -3.1384849264
 H         -1.2021527241        2.9987322519       -1.6616002176
 C         -1.4351430252        1.9511200875        0.7920212020
 H         -2.0811397368        2.7990372845        0.5281104543
 C         -1.1767721472        1.9801899860        2.2834716750
 C         -0.7285817045        3.2601480497        2.9214423495
 C         -2.1111035134        2.7408091316        3.1740847931
 H         -2.3398286669        2.3327132109        4.1472045130
 H         -2.9420264075        3.2503003981        2.7086117869
 H         -0.0066003389        3.2131407464        3.7220871958
 H         -0.6195907289        4.1217797734        2.2804003845
 H         -0.7750736391        1.0517877682        2.6700312307
 O         -3.8683432447        2.0351045169       -0.6567305713
