  62
        -98.94475675
 C         -1.8984233780        0.1613943802        0.7834471609
 C         -2.9044385188        1.1384555142        0.5921606023
 C         -4.2746360305        0.6290584878        0.4726019435
 C         -4.5059328607       -0.6926067583        0.5739773292
 C         -5.8503157154       -1.3632127668        0.4895610632
 C         -6.3186833443       -1.6400315302       -0.9458197464
 C         -6.7584204893       -0.4069955910       -1.7364379149
 H         -7.2619376976       -0.7665443956       -2.6360563586
 H         -7.4916443655        0.1531231518       -1.1553112422
 C         -5.6093219645        0.5220999453       -2.1521829795
 H         -5.7280158478        0.8010396537       -3.2016284506
 H         -4.6606568743       -0.0134385576       -2.0689512024
 C         -5.5193601622        1.8179117080       -1.3460377422
 H         -4.6520812667        2.3818390241       -1.6986583020
 H         -6.4101986445        2.4237900122       -1.5254636298
 C         -5.3657928166        1.6102598154        0.1664777066
 H         -5.0895444725        2.5662928932        0.6178008085
 H         -6.3093944894        1.2787946868        0.5989906589
 H         -5.5152580840       -2.1502240227       -1.4823544032
 H         -7.1657973551       -2.3271917155       -0.8850824901
 H         -6.5956975570       -0.7587069645        1.0070801371
 H         -5.7542041790       -2.3182994499        1.0104383215
 O         -3.5133795752       -1.5973882621        0.7878827927
 C         -2.1861548126       -1.2001947015        0.8753376578
 O         -1.3804833782       -2.1364026433        1.0367267961
 O         -2.6669697961        2.3738409341        0.5197812305
 C         -0.4526312469        0.6117568315        0.8892869386
 C          0.3735892281       -0.0482320761       -0.1860742991
 C         -0.0807270442        0.0011561349       -1.5026027558
 C          0.6233293064       -0.6129129463       -2.5186442280
 C          1.8079735703       -1.2763270046       -2.2482398524
 C          2.2783223517       -1.3200633774       -0.9426748154
 C          1.5657223536       -0.7028274559        0.0782294781
 H          1.9501049224       -0.7687174862        1.0818202653
 N          3.4776134520       -1.9853134656       -0.6376947329
 S          4.6038304111       -1.2315142030        0.3421045207
 O          5.8468756070       -1.9154762056        0.0603435115
 O          4.1691107385       -1.2458090412        1.7148757404
 C          4.6675124938        0.4397215988       -0.2768149712
 C          5.2929853294        0.6609129790       -1.4885536097
 C          5.2910220235        1.9397163124       -2.0205042738
 C          4.6599982568        2.9693183455       -1.3385798239
 C          4.0398391140        2.7313101838       -0.1220898136
 C          4.0409470670        1.4542271144        0.4166762775
 H          3.5717109161        1.2288087817        1.3599836460
 H          3.5519450313        3.5339403490        0.4078043058
 H          4.6528684162        3.9639076431       -1.7559127999
 H          5.7767732839        2.1298171746       -2.9640025633
 H          5.7814553235       -0.1631271604       -1.9829065444
 H          3.9255864709       -2.4176930272       -1.4324853500
 H          2.3565996719       -1.7651063192       -3.0389224220
 H          0.2506399748       -0.5744741590       -3.5311177342
 H         -1.0063079095        0.5190748018       -1.7143550095
 H         -0.4721607209        1.6946829660        0.6949035106
 C          0.0697977393        0.3799361038        2.2908829560
 C          1.0983838186        1.2986702397        2.8764232372
 C         -0.3136066624        1.3386021338        3.3768204613
 H         -0.5283375806        0.9454092843        4.3591589405
 H         -0.9303015018        2.1808436749        3.0987151367
 H          1.8624709217        0.8777672656        3.5135930297
 H          1.4322431324        2.1236951034        2.2653219895
 H          0.1149716291       -0.6717621506        2.5524918755
