  62
        -98.94202523
 C         -0.7156566251       -1.3084682097        0.5353736182
 C         -1.1524122181       -0.8335134126       -0.7225474673
 C         -2.1396781250        0.2604631317       -0.6982606386
 C         -2.5411309846        0.7522854020        0.4865805201
 C         -3.6216119734        1.7687627876        0.7328542784
 C         -4.9706957487        1.0689456568        0.9756794780
 C         -5.7828106535        0.7801817618       -0.2861742413
 H         -6.6467717101        0.1827655288        0.0141378602
 H         -6.1610849943        1.7206953308       -0.6921619383
 C         -5.0326645366        0.0355004759       -1.3936278620
 H         -4.4404816302       -0.7719156226       -0.9588482818
 H         -5.7755133511       -0.4256917708       -2.0475592989
 C         -4.1302982402        0.9506355574       -2.2344851818
 H         -4.3388927908        0.7869701538       -3.2936493982
 H         -4.3853473817        1.9893738030       -2.0261567781
 C         -2.6209994155        0.7370677389       -2.0409626459
 H         -2.0924022143        1.6625915289       -2.2885467315
 H         -2.2688306916       -0.0235445074       -2.7446061743
 H         -4.7748530234        0.1352417592        1.5093620445
 H         -5.5785789423        1.6964354266        1.6307329161
 H         -3.6907185550        2.4687565005       -0.0934945963
 H         -3.3466261830        2.3108591730        1.6389477638
 O         -2.0394633099        0.3113328970        1.6740003500
 C         -1.1269894009       -0.7250520243        1.7317882628
 O         -0.7627386387       -1.0312142161        2.8866081385
 O         -0.7554492414       -1.3143846355       -1.8160328348
 C          0.2355826746       -2.4877215214        0.6061218597
 C          1.4752070730       -2.2316412402       -0.2153130991
 C          2.0771138949       -3.2038100845       -1.0041240287
 C          3.2242658246       -2.9104854205       -1.7205859623
 C          3.7965951463       -1.6537814444       -1.6606258238
 C          3.2043100000       -0.6746852750       -0.8697183172
 C          2.0567007970       -0.9718731320       -0.1536957385
 H          1.6031191783       -0.2135848991        0.4681506356
 N          3.7376303846        0.6182181506       -0.8176163905
 S          3.4650613993        1.6399285950        0.4662015653
 O          4.4288612683        2.7044356865        0.2789669968
 O          3.5335082168        0.9504993058        1.7339959066
 C          1.8352952395        2.2992441950        0.1929904885
 C          0.9836021276        2.4567038043        1.2677095047
 C         -0.2525372352        3.0473562107        1.0635839209
 C         -0.6158437584        3.4642816401       -0.2070709140
 C          0.2468722387        3.2901636123       -1.2779776949
 C          1.4873271991        2.7064866601       -1.0790877992
 H          2.1848340751        2.5620696791       -1.8871783811
 H         -0.0396599843        3.6132158082       -2.2660667547
 H         -1.5758001560        3.9306833802       -0.3601495829
 H         -0.9226019878        3.1763544006        1.8984190165
 H          1.2971236641        2.1059815966        2.2392272971
 H          4.6331944314        0.7519657829       -1.2613912079
 H          4.6892309348       -1.4254762046       -2.2224298171
 H          3.6803994077       -3.6729152802       -2.3336909188
 H          1.6467048644       -4.1900486419       -1.0619712045
 H          0.5407490826       -2.5719655011        1.6604430214
 C         -0.4959736297       -3.7545642022        0.2070175198
 C         -0.1315714945       -5.0711714567        0.8224369477
 C         -1.4169509239       -4.3986944104        1.1976881742
 H         -2.3451782121       -4.8208003389        0.8426760149
 H         -1.4909342223       -3.9400987428        2.1734612792
 H         -0.1805624282       -5.9590028921        0.2100414993
 H          0.6651382688       -5.0797817563        1.5510521580
 H         -0.8080469619       -3.7417267294       -0.8312380135
