  62
        -98.94398851
 C          1.9324018433        0.8683867933       -0.3984019658
 C          0.9560588791        1.4520401281       -1.2349153871
 C          0.1822341094        2.5704765843       -0.6686031253
 C          0.4265579380        2.9550595611        0.5961064389
 C         -0.2755600947        4.0297914698        1.3803908080
 C         -1.4399360899        3.4388865471        2.1946600552
 C         -2.7775235419        3.4047418493        1.4585999220
 H         -3.4887910201        2.8826804455        2.1029418989
 H         -3.1421526481        4.4248943604        1.3176835077
 C         -2.7315955118        2.6930929367        0.1046335014
 H         -2.1208950735        1.7946126910        0.2083458529
 H         -3.7440555103        2.3660779005       -0.1420052923
 C         -2.2023345835        3.5829797747       -1.0302230123
 H         -2.1772896792        4.6169143518       -0.6860257888
 H         -2.9033627783        3.5522571559       -1.8669146673
 C         -0.8269047853        3.1969187562       -1.5934565537
 H         -0.9554906689        2.4661388717       -2.3983974486
 H         -0.3710520819        4.0821588053       -2.0504097189
 H         -1.5650271781        4.0236175755        3.1086705378
 H         -1.1668522721        2.4207606738        2.4870948640
 H         -0.6186810778        4.8252300628        0.7248285472
 H          0.4629718319        4.4386303175        2.0733580095
 O          1.3681254458        2.3564900542        1.3750024243
 C          2.1180334701        1.2883659130        0.9184994394
 O          2.9141532032        0.8230253562        1.7573281886
 O          0.7281202968        1.0475444423       -2.4092616788
 C          2.7137858730       -0.3361862854       -0.8991003902
 C          2.3424415010       -1.5166401284       -0.0349758772
 C          3.2554487476       -2.3263760044        0.6250735609
 C          2.8098727945       -3.3205138825        1.4806592269
 C          1.4603893762       -3.5050575135        1.7174606721
 C          0.5374948565       -2.7092421058        1.0456604260
 C          0.9864548201       -1.7612386745        0.1444530382
 H          0.2705373425       -1.1531081620       -0.3846796240
 N         -0.8402623512       -2.8498301241        1.2615893816
 S         -1.8722243868       -1.5269818888        1.1859883090
 O         -1.1821358912       -0.2780207783        1.3990444817
 O         -2.9241804437       -1.8445715211        2.1303889565
 C         -2.5484503465       -1.6363744550       -0.4584368495
 C         -3.4419017402       -2.6623077598       -0.7034918982
 C         -3.9836593620       -2.7958930936       -1.9707623654
 C         -3.6246603594       -1.9054346367       -2.9720702415
 C         -2.7299228384       -0.8801462996       -2.7112415109
 C         -2.1854706756       -0.7420571178       -1.4437341639
 H         -1.4832542476        0.0465592147       -1.2233656359
 H         -2.4397588175       -0.1863010573       -3.4841628704
 H         -4.0442574780       -2.0087346410       -3.9603005389
 H         -4.6814738528       -3.5918551590       -2.1750198953
 H         -3.7020985839       -3.3235413913        0.1061345114
 H         -1.0898078900       -3.4737186228        2.0146063450
 H          1.1203356192       -4.2504802872        2.4203441436
 H          3.5276534664       -3.9419774027        1.9946976259
 H          4.3127194840       -2.1683729875        0.4891964535
 H          2.3516628041       -0.5202769937       -1.9211896331
 C          4.1983437548       -0.0504964746       -0.9454724587
 C          5.0794684040       -0.8101282138       -1.8906331996
 C          4.7701286720        0.6327139184       -2.1502589720
 H          5.5510014693        1.3639558906       -2.0048327214
 H          4.0890626116        0.8755674644       -2.9526909316
 H          6.0770001269       -1.0695408124       -1.5698610333
 H          4.6121225351       -1.5499656660       -2.5225195525
 H          4.5994029492        0.2246878966        0.0234445298
