  62
        -98.93908333
 C         -2.5129934208       -1.2216508335        0.3334219954
 C         -2.5047053756       -0.3934551905       -0.8119225609
 C         -3.2206685604        0.8949591205       -0.7070530074
 C         -3.8309487365        1.2060714709        0.4515513943
 C         -4.5832195499        2.4621342937        0.8033891953
 C         -3.6513132917        3.6501686996        1.0912392330
 C         -2.4974747446        3.8163388455        0.1053352123
 H         -1.8546457897        4.6194360401        0.4765325982
 H         -1.8937338686        2.9059041359        0.0950536487
 C         -2.9076166306        4.1688026355       -1.3226935105
 H         -3.4749224976        5.1021604917       -1.3117647837
 H         -1.9876732417        4.3445097958       -1.8865403313
 C         -3.7248059650        3.1098766036       -2.0661713903
 H         -3.7249513884        3.3851453900       -3.1247941846
 H         -4.7628816895        3.1169136936       -1.7448440246
 C         -3.1567688353        1.6964969002       -1.9845708902
 H         -3.6481604492        1.0777355074       -2.7450917614
 H         -2.0984274908        1.7178566139       -2.2714259953
 H         -3.2203314231        3.5097084259        2.0856970981
 H         -4.2499813264        4.5623630120        1.1091371309
 H         -5.1540715153        2.2419096960        1.7081861747
 H         -5.2902331922        2.7065752645        0.0164781443
 O         -3.8016216448        0.3772983858        1.5357533067
 C         -3.1407991988       -0.8352587575        1.5153058250
 O         -3.1774547707       -1.4648660219        2.5931468689
 O         -1.9225925875       -0.7055812271       -1.8835356758
 C         -1.7745254540       -2.5484753621        0.3163116170
 C         -0.3135263555       -2.3009148182        0.0262940857
 C          0.4079672435       -2.9816506132       -0.9445376221
 C          1.7374781229       -2.6708162594       -1.1751195528
 C          2.3760203510       -1.6869763111       -0.4431606021
 C          1.6663712956       -1.0076860100        0.5388375866
 C          0.3374493754       -1.3230693849        0.7692236495
 H         -0.2167181462       -0.7873076814        1.5318154066
 N          2.3107123300       -0.0086068784        1.2964371253
 S          2.9711040036        1.2783817321        0.4359826031
 O          3.0077095506        2.3804949590        1.3734245775
 O          2.2621055684        1.5111432969       -0.8012153041
 C          4.6367675972        0.7464841521        0.1020901366
 C          5.4371384561        0.4061832005        1.1752185204
 C          6.7380516841       -0.0058834551        0.9348278355
 C          7.2145809746       -0.0670181577       -0.3664730513
 C          6.3992524315        0.2810572743       -1.4324798037
 C          5.0960226218        0.6926451589       -1.1991168038
 H          4.4225423896        0.9660457513       -1.9957385073
 H          6.7712317840        0.2326665513       -2.4432554164
 H          8.2275541696       -0.3880810688       -0.5510069324
 H          7.3749491802       -0.2778219047        1.7610051167
 H          5.0280874226        0.4716807428        2.1695697959
 H          1.7376560446        0.3472435701        2.0489100363
 H          3.4085837719       -1.4373886837       -0.6255160944
 H          2.2834376512       -3.2015428497       -1.9400388998
 H         -0.0738282583       -3.7460854557       -1.5313708209
 H         -1.8573196436       -2.9547977925        1.3351487739
 C         -2.4345875914       -3.5100114757       -0.6487112399
 C         -2.3374911436       -4.9881201302       -0.4233410650
 C         -3.6370015849       -4.2786016117       -0.1927948698
 H         -4.4441533965       -4.4352945593       -0.8924551196
 H         -3.9662017933       -4.1251314565        0.8248933750
 H         -2.2554875967       -5.6366354280       -1.2823774914
 H         -1.7859707555       -5.3265882361        0.4406493905
 H         -2.4325724686       -3.1423089488       -1.6682023625
