  62
        -98.93298016
 C         -2.2982534503       -1.2463876403        0.0595354902
 C         -3.2350049104       -0.6352229603        0.9301688101
 C         -4.1249756704        0.3733284695        0.3352817099
 C         -3.9834540403        0.6813671694       -0.9665302401
 C         -4.7595743103        1.7345253793       -1.7051488603
 C         -4.2120292605        3.1340940294       -1.3600178004
 C         -5.1942660806        4.0246410394       -0.5986842105
 H         -4.6345537607        4.8850845195       -0.2257042206
 H         -5.9475197406        4.3984256493       -1.2953368407
 C         -5.9273168607        3.3615212794        0.5713991994
 H         -6.3736988608        4.1637976195        1.1627746493
 H         -6.7536252406        2.7581822493        0.1926780094
 C         -5.0665548707        2.4898497196        1.4951130596
 H         -5.3960197808        2.6554857497        2.5229687896
 H         -4.0202759107        2.7929682197        1.4456626397
 C         -5.1722200906        0.9761620995        1.2305692597
 H         -5.0635354406        0.4479611096        2.1826356298
 H         -6.1660045005        0.7432296494        0.8378461197
 H         -3.9248159304        3.6490245093       -2.2779605504
 H         -3.2999821705        3.0097308895       -0.7721391403
 H         -5.8140429903        1.6614964192       -1.4483156304
 H         -4.6442869102        1.5341703292       -2.7704995203
 O         -3.0396896902        0.1117707394       -1.7580207500
 C         -2.1689211202       -0.8582621705       -1.2749350298
 O         -1.3554585300       -1.2680556905       -2.1213100397
 O         -3.3209979905       -0.9194003902        2.1559230501
 C         -1.3737107602       -2.2982188702        0.6460747604
 C          0.0554284398       -2.0148951601        0.2554947706
 C          0.8499826099       -2.8979092102       -0.4623069693
 C          2.1543750199       -2.5630334401       -0.7821660592
 C          2.6932534198       -1.3497916100       -0.3971806692
 C          1.9098635396       -0.4605310900        0.3272835106
 C          0.6064470996       -0.8021260701        0.6527140405
 H         -0.0059562305       -0.1076582601        1.2163036804
 N          2.4408704995        0.7831141801        0.7093512105
 S          3.9583189494        0.8318016803        1.4233557407
 O          4.2453095095       -0.3873967296        2.1428895308
 O          3.9684262293        2.0526834303        2.1998456206
 C          5.0760278996        1.0113060102        0.0495124608
 C          6.1211840896        0.1229378503       -0.1108103990
 C          6.9852433297        0.2915148002       -1.1817377589
 C          6.7906897098        1.3404978001       -2.0671032391
 C          5.7376646597        2.2257512001       -1.8902191693
 C          4.8709666196        2.0632851301       -0.8214304693
 H          4.0430224195        2.7302449401       -0.6473202095
 H          5.5890439997        3.0402673000       -2.5808060094
 H          7.4634257698        1.4695347001       -2.9002301990
 H          7.8047181598       -0.3951053897       -1.3210164488
 H          6.2305708696       -0.6805792496        0.6000838411
 H          1.7890702294        1.3707473501        1.2081472104
 H          3.7064178498       -1.0846318600       -0.6513749392
 H          2.7585772200       -3.2556238901       -1.3480482990
 H          0.4418303800       -3.8390271602       -0.7914959792
 H         -1.4561872104       -2.1535647901        1.7369512204
 C         -1.8027022701       -3.7318742003        0.3725568605
 C         -3.2455609801       -4.0783880404        0.1616828604
 C         -2.2746389099       -4.1910263804       -0.9732472995
 H         -1.9896443998       -5.1788760804       -1.3047294193
 H         -2.3169371099       -3.4601255605       -1.7650195095
 H         -3.6259482400       -4.9845775604        0.6087002605
 H         -3.9583889601       -3.2665755705        0.1469507803
 H         -1.2204760801       -4.4422448602        0.9518573107
