  62
        -98.94450357
 C         -1.5051831603       -1.4756916467        0.4779271328
 C         -1.6425777108       -0.2163280259        1.1138578769
 C         -2.7926860867        0.5960196883        0.6965596029
 C         -3.6236016059        0.1207144096       -0.2490631586
 C         -4.8053973141        0.8606519698       -0.8044293789
 C         -4.4159086162        1.6793696231       -2.0430404696
 C         -3.1747640125        2.5487204198       -1.8410339496
 H         -3.0155504414        3.1076520569       -2.7656282797
 H         -2.3047395840        1.9023018811       -1.7026673931
 C         -3.2730573440        3.5254891323       -0.6612156795
 H         -4.3170427080        3.6539857528       -0.3731782775
 H         -2.9036678384        4.5009351517       -0.9836003403
 C         -2.4521410196        3.1218087789        0.5646667629
 H         -2.4178115311        3.9769239842        1.2442228658
 H         -1.4265652907        2.8988644747        0.2608554343
 C         -2.9832193095        1.9275495506        1.3667867839
 H         -4.0351362070        2.0856308317        1.6136367616
 H         -2.4145616278        1.8759146859        2.2996178501
 H         -5.2632126812        2.3091634347       -2.3206432783
 H         -4.2213685027        0.9888640416       -2.8669887684
 H         -5.2119661681        1.5150722842       -0.0359217404
 H         -5.5658977724        0.1305767229       -1.0867017461
 O         -3.4501964060       -1.0836041204       -0.8489703341
 C         -2.3824150096       -1.9060114758       -0.5178641095
 O         -2.3428680576       -2.9675475594       -1.1675965237
 O         -0.8445462400        0.2050059177        1.9929807427
 C         -0.3224802233       -2.3472622010        0.8681311277
 C          0.6760280172       -2.3227877885       -0.2625437584
 C          0.8323650671       -3.3649765422       -1.1671652282
 C          1.7337962383       -3.2514830175       -2.2110958056
 C          2.5100284262       -2.1164300079       -2.3571478835
 C          2.3650695421       -1.0695573576       -1.4532186486
 C          1.4424905284       -1.1744016967       -0.4251492128
 H          1.3189759893       -0.3543185931        0.2674788332
 N          3.1365232382        0.0976067180       -1.5681625428
 S          3.8125060805        0.7665476939       -0.1861482643
 O          4.9858338909        1.4681490674       -0.6651329718
 O          4.0445605095       -0.2376145309        0.8253939136
 C          2.6302035760        1.9703748962        0.3748765454
 C          2.1429030320        1.9094872589        1.6643093325
 C          1.2677509585        2.8925411318        2.0974009703
 C          0.9017431339        3.9157120211        1.2376408273
 C          1.3963395959        3.9605644575       -0.0578290285
 C          2.2703839429        2.9801286212       -0.4963654431
 H          2.6844069068        2.9840346623       -1.4910446071
 H          1.1022092553        4.7558346370       -0.7239348834
 H          0.2256462893        4.6832849879        1.5797485676
 H          0.8707367344        2.8472532675        3.0983797309
 H          2.4482921805        1.0949712526        2.3019585685
 H          3.8000224864        0.0869364088       -2.3296074877
 H          3.2227500129       -2.0366059096       -3.1643116996
 H          1.8411173584       -4.0635708886       -2.9144005792
 H          0.2350205296       -4.2556276402       -1.0651286840
 H          0.1383068872       -1.8425191676        1.7290279388
 C         -0.7417494844       -3.7384800292        1.2904162558
 C          0.2268619300       -4.5937099038        2.0495331540
 C         -0.9721888843       -4.0222899439        2.7432066879
 H         -1.7767446436       -4.6886872855        3.0158996186
 H         -0.8208991288       -3.2122366122        3.4417233505
 H          0.2482077154       -5.6538797296        1.8484490223
 H          1.1943184081       -4.1693296179        2.2738132611
 H         -1.4014043056       -4.2231530771        0.5814443045
