  62
        -98.93912914
 C         -2.4271476056       -1.2612983849       -0.0795483173
 C         -3.4124894962       -0.7771290627        0.8168035218
 C         -4.2236779718        0.3632276099        0.3597083362
 C         -3.9906105108        0.8793904736       -0.8593207048
 C         -4.6510741909        2.0738860404       -1.4898896001
 C         -3.8279510196        3.3472093906       -1.2301321296
 C         -4.1507967271        4.0669362938        0.0788789204
 H         -3.4144567612        4.8649242438        0.1993082761
 H         -5.1332868409        4.5364940841       -0.0034377397
 C         -4.1319472550        3.1875719234        1.3320197662
 H         -3.2675648064        2.5212377857        1.2997454938
 H         -4.0019596412        3.8413205923        2.1966615012
 C         -5.4197510917        2.3707221710        1.5158692392
 H         -6.1818739862        2.7514794239        0.8362511822
 H         -5.8022270538        2.5233990734        2.5270789503
 C         -5.2682985001        0.8541660907        1.3246382339
 H         -5.0000791112        0.3922865092        2.2798013874
 H         -6.2364181215        0.4328768675        1.0345831568
 H         -2.7694049015        3.0726907823       -1.2486075541
 H         -3.9962655718        4.0471690326       -2.0512292500
 H         -4.6717557183        1.8869911766       -2.5655781897
 H         -5.6706146196        2.1846841022       -1.1328564966
 O         -3.0366832525        0.3827737018       -1.6927722203
 C         -2.2256598116       -0.6792163139       -1.3306914437
 O         -1.3983305578       -0.9987529929       -2.2076905924
 O         -3.6038788092       -1.2768611329        1.9575417616
 C         -1.5471349283       -2.4070266926        0.3968358104
 C         -0.1921153597       -1.8339763582        0.7324558103
 C          0.0609140440       -1.3689930787        2.0195958753
 C          1.2630359795       -0.7582798159        2.3258092437
 C          2.2321170968       -0.5860219123        1.3527897606
 C          1.9822121515       -1.0324599301        0.0624702914
 C          0.7870757980       -1.6712423690       -0.2362689061
 H          0.5980291375       -1.9956814180       -1.2476682328
 N          2.9507327281       -0.8290796597       -0.9404318505
 S          3.4620187125        0.7574886449       -1.1691285479
 O          2.4484825574        1.7087503414       -0.7728471700
 O          3.9077847830        0.8234116740       -2.5441060023
 C          4.8806233315        0.8956199088       -0.0999941422
 C          5.9096156505       -0.0110457859       -0.2648106394
 C          7.0234219719        0.0849579692        0.5539240185
 C          7.0910582410        1.0823224107        1.5155223385
 C          6.0514977640        1.9872307629        1.6658928963
 C          4.9336249292        1.8957483347        0.8509632378
 H          4.0979270559        2.5722177338        0.9353291737
 H          6.1053897990        2.7621512620        2.4136242855
 H          7.9589880793        1.1549736802        2.1516624502
 H          7.8337089985       -0.6169485219        0.4401102688
 H          5.8182312240       -0.7673641431       -1.0262623173
 H          2.6807060977       -1.2284275366       -1.8289943389
 H          3.1659138309       -0.0976655474        1.5792121054
 H          1.4457818620       -0.4059902287        3.3295741582
 H         -0.7072434061       -1.4738694793        2.7726895895
 H         -2.0086238815       -2.7566535638        1.3297224095
 C         -1.4954390522       -3.5619232417       -0.5805944933
 C         -0.9640685640       -4.8836516442       -0.1151578218
 C         -2.4272175073       -4.7202093728       -0.3934401443
 H         -2.8428527821       -5.1919347363       -1.2712306635
 H         -3.1066382924       -4.6848518132        0.4454776747
 H         -0.3723811598       -5.4715769606       -0.7998769545
 H         -0.6495481338       -4.9574441209        0.9147818564
 H         -1.2845376671       -3.2611717047       -1.5989439306
