  62
        -98.93930320
 C         -2.0170207354       -0.8921364065        0.0263379028
 C         -2.3222679029        0.0842896205        0.9992537339
 C         -2.3794259950        1.4815065835        0.5386882840
 C         -2.1322293456        1.7591759554       -0.7552842480
 C         -2.0485173081        3.0806287380       -1.4915181239
 C         -2.5876314205        4.3633743663       -0.8635422305
 C         -4.1056512326        4.4022426003       -0.6908759132
 H         -4.5660482850        4.4583116023       -1.6802739779
 H         -4.3636079505        5.3153800238       -0.1502923058
 C         -4.7161910319        3.2059179891        0.0344586065
 H         -4.5504689073        2.2988396520       -0.5502748894
 H         -5.7967986857        3.3629006621        0.0879853259
 C         -4.2094398738        2.9769365426        1.4570666162
 H         -4.8388150212        2.2066156279        1.9103538184
 H         -4.3264267721        3.8914216242        2.0415325302
 C         -2.7491106345        2.5050088126        1.5736573993
 H         -2.6267816241        2.0144392559        2.5440190429
 H         -2.0551277219        3.3423469930        1.5466823400
 H         -2.3103879816        5.1784444446       -1.5376668567
 H         -2.0902669331        4.5549922543        0.0827681809
 H         -2.5435946369        2.9166684398       -2.4541320587
 H         -0.9837472857        3.2200602267       -1.7120539529
 O         -1.8473887365        0.7789171135       -1.6622076786
 C         -1.7614630301       -0.5533586859       -1.3010049479
 O         -1.4762319251       -1.3239925250       -2.2382435462
 O         -2.5283803509       -0.1974778077        2.2126064941
 C         -1.8662626115       -2.3419111251        0.4479489450
 C         -0.4647050123       -2.8064772236        0.1340080238
 C         -0.1727874825       -4.0416734811       -0.4295399410
 C          1.1352705274       -4.3803210657       -0.7315206857
 C          2.1711613289       -3.4969166515       -0.4924687116
 C          1.8910974628       -2.2663863822        0.0923765503
 C          0.5858427078       -1.9433507620        0.4198199829
 H          0.3812536403       -0.9832029271        0.8724357515
 N          2.9187992828       -1.3480867983        0.3745855861
 S          2.5679806001        0.3000269263        0.2502925966
 O          1.9452804725        0.7347779246        1.4766442442
 O          1.8476148209        0.5788547142       -0.9718212240
 C          4.2223043806        0.9615126434        0.1603324597
 C          4.7530856854        1.3042408554       -1.0686707387
 C          6.0519690730        1.7852013861       -1.1275825205
 C          6.7948971099        1.9106949555        0.0365965627
 C          6.2483166659        1.5630647925        1.2632182262
 C          4.9499221998        1.0832997791        1.3293160138
 H          4.4783232057        0.8093603782        2.2585589977
 H          6.8277511188        1.6643828264        2.1665598167
 H          7.8053510390        2.2844949875       -0.0122939225
 H          6.4775822673        2.0593117189       -2.0793876685
 H          4.1342669446        1.1955879277       -1.9451994061
 H          3.7834166755       -1.5754088243       -0.0983011287
 H          3.1865102847       -3.7528091884       -0.7544217446
 H          1.3480265459       -5.3398576302       -1.1779395913
 H         -0.9704661541       -4.7330332904       -0.6467733940
 H         -1.9972732990       -2.3463531595        1.5409127216
 C         -2.9442839090       -3.2010465577       -0.1787927645
 C         -3.4466655571       -4.4233216177        0.5285503261
 C         -4.3121964953       -3.2041732241        0.4329445279
 H         -5.1697595048       -3.2268573581       -0.2225039549
 H         -4.4566856921       -2.6055047323        1.3205435853
 H         -3.7145798003       -5.2865379135       -0.0617735902
 H         -3.0109651258       -4.6598244288        1.4874555543
 H         -2.8787454899       -3.2210989056       -1.2610043459
