  62
        -98.94472297
 C          2.0152590694        1.3699886996        0.2983457191
 C          2.6447064737        0.7517418274       -0.8091760557
 C          3.7934475109       -0.1094997820       -0.4915686592
 C          4.1790528027       -0.2514435547        0.7896633654
 C          5.2927402214       -1.1424748722        1.2567449089
 C          4.7699846150       -2.5416584881        1.6116594040
 C          3.8752821667       -3.1579894663        0.5358226654
 H          2.9568688398       -2.5714696217        0.4539507949
 H          3.5887613206       -4.1537865779        0.8814836994
 C          4.5294513557       -3.2659129648       -0.8487558509
 H          4.3163338838       -4.2549233149       -1.2599168102
 H          5.6126133640       -3.1810412175       -0.7538601293
 C          4.0282577931       -2.2420866668       -1.8693052775
 H          2.9354556625       -2.2600317635       -1.9012914773
 H          4.3881055134       -2.5433170623       -2.8567039599
 C          4.4800959408       -0.7942396427       -1.6393714899
 H          4.2160267698       -0.2195316176       -2.5319142850
 H          5.5645897326       -0.7619061023       -1.5172284565
 H          4.1938142388       -2.4720685437        2.5374030805
 H          5.6253615379       -3.1948449508        1.7929354360
 H          5.7416528156       -0.6960899697        2.1456321390
 H          6.0476022679       -1.2121910791        0.4761794161
 O          3.5540402546        0.3659120594        1.8250264498
 C          2.4488508485        1.1739366251        1.6086272196
 O          1.9447480947        1.6470200100        2.6480910166
 O          2.2671798345        0.9062105043       -1.9991664931
 C          0.8052521417        2.2600232365        0.0783745844
 C         -0.2924929246        1.4778789732       -0.6022513640
 C         -1.0224126856        1.9608885008       -1.6798424597
 C         -2.0122448968        1.1858336467       -2.2606089189
 C         -2.3026699024       -0.0759577334       -1.7771502799
 C         -1.5943129962       -0.5593265171       -0.6835176191
 C         -0.6066374480        0.2197651509       -0.1016941468
 H         -0.0542439702       -0.1601508924        0.7496234146
 N         -1.8949460436       -1.8319628686       -0.1698139454
 S         -3.5063931581       -2.2474411200        0.0067581308
 O         -3.5331242181       -3.2037011883        1.0914134569
 O         -4.0281861068       -2.7134377539       -1.2538415524
 C         -4.3342995123       -0.7393177719        0.4800194002
 C         -3.9263346777       -0.1090541719        1.6389934473
 C         -4.5369241220        1.0787422088        2.0066438805
 C         -5.5407480252        1.6132460078        1.2132013857
 C         -5.9432581263        0.9653887334        0.0558987451
 C         -5.3341325232       -0.2218563224       -0.3179683241
 H         -5.6134343047       -0.7567785853       -1.2110232071
 H         -6.7254845540        1.3822253956       -0.5576826185
 H         -6.0112868748        2.5399574414        1.5012803882
 H         -4.2241258417        1.5833317246        2.9068164497
 H         -3.1458478785       -0.5515517928        2.2375857501
 H         -1.3572974111       -2.0861485410        0.6452552871
 H         -3.0549147959       -0.6993105985       -2.2325391947
 H         -2.5620149025        1.5686496276       -3.1066070022
 H         -0.8091974094        2.9404244484       -2.0742658707
 H          0.4502090411        2.5426933957        1.0803508530
 C          1.2076089771        3.5157068731       -0.6665128334
 C          0.4591675275        4.7953791374       -0.4487978740
 C          1.8441177571        4.6345783901        0.1000667749
 H          2.6518286569        5.1823078021       -0.3617554315
 H          1.9631245163        4.4996760635        1.1655999234
 H          0.3173466224        5.4594592469       -1.2879913791
 H         -0.3651051395        4.7804999364        0.2479208657
 H          1.5927852740        3.3060212823       -1.6576283147
