  62
        -98.94304229
 C          1.9418000402        0.0578630726       -0.2870500113
 C          2.8196477914       -0.7123391919        0.5150423906
 C          4.1335475631       -0.1098826973        0.7816938619
 C          4.4213284134        1.1185968569        0.3177908741
 C          5.7037426332        1.8740706621        0.5375904258
 C          6.8184638263        1.5114735906       -0.4532396220
 C          7.4565006689        0.1381338933       -0.2401043387
 H          8.3569639873        0.1046447147       -0.8567108469
 H          7.7705247629        0.0425427676        0.7997693424
 C          6.5545292220       -1.0448600027       -0.6188944760
 H          5.7364366588       -0.6911945543       -1.2507256964
 H          7.1265817053       -1.7637923414       -1.2097954685
 C          5.9679511955       -1.8020397787        0.5725605599
 H          5.3192963832       -2.5934245243        0.1888863540
 H          6.7739641133       -2.2722719741        1.1401681967
 C          5.1404292500       -0.9325192592        1.5281402810
 H          4.5939794085       -1.5921161468        2.2063567896
 H          5.7958658624       -0.2907341270        2.1162053756
 H          7.5987705927        2.2701025451       -0.3576032563
 H          6.4175235000        1.5741391015       -1.4676612308
 H          5.4648423147        2.9327790290        0.4150405736
 H          6.0546703709        1.7129690257        1.5572948737
 O          3.5362866776        1.8453987826       -0.4155856703
 C          2.2990264412        1.3263666024       -0.7548867101
 O          1.6111800382        2.0826321408       -1.4716419245
 H         -1.5589248760        1.2595254074       -0.7225808115
 C         -1.4802383826        0.7166831994        0.2076748607
 C         -0.4465425997       -0.1884512456        0.4007041158
 C         -0.3598342422       -0.8565449774        1.6184973818
 C         -1.2866853545       -0.6165254253        2.6155200888
 C         -2.3262535509        0.2749825884        2.4136074909
 C         -2.4224519852        0.9468133782        1.2016249782
 N         -3.4686719311        1.8592490685        0.9637146079
 S         -4.4431389307        1.6244981309       -0.3769344220
 O         -3.6826636346        1.8203429585       -1.5838168752
 O         -5.5713736764        2.5056265332       -0.1749879550
 C         -4.9676316883       -0.0752811394       -0.2418102902
 C         -6.1486888961       -0.3574207981        0.4167387275
 C         -6.5206591542       -1.6807475040        0.5897468014
 C         -5.7024857919       -2.6949283236        0.1152129727
 C         -4.5185818112       -2.3953563646       -0.5410635411
 C         -4.1449130875       -1.0735132932       -0.7244728544
 H         -3.2330863548       -0.8047307292       -1.2318339636
 H         -3.8802451930       -3.1822515600       -0.9093561689
 H         -5.9886850375       -3.7252423925        0.2559531566
 H         -7.4426744582       -1.9167998496        1.0961641781
 H         -6.7550750854        0.4626870394        0.7659432263
 H         -4.0450205482        2.0369456266        1.7745282055
 H         -3.0526608434        0.4578551634        3.1911262837
 H         -1.2039599655       -1.1350426792        3.5585500817
 H          0.4525877018       -1.5477817295        1.7805183967
 C          0.5582498548       -0.4198791430       -0.7025217536
 H          0.2706143134        0.2173454121       -1.5503688871
 C          0.5426211128       -1.8638951106       -1.1650608835
 C         -0.5019278824       -2.3026890860       -2.1446259061
 C          0.9281000298       -2.1801433528       -2.5771523541
 H          1.4920031593       -3.0807054247       -2.7682995606
 H          1.1974995695       -1.3528580761       -3.2185289869
 H         -0.9228138533       -3.2908790974       -2.0419748117
 H         -1.1987475461       -1.5593096234       -2.5038062357
 H          0.8469417541       -2.5662414256       -0.4009978705
 O          2.5468394384       -1.8423872101        0.9968474389
