  62
        -98.93761210
 C         -2.5908549573       -1.1454607094        0.2318669125
 C         -2.7479681802       -0.3034399020       -0.8944370166
 C         -3.6113028397        0.8758275290       -0.7077288454
 C         -4.1891719170        1.0910116847        0.4864672671
 C         -5.1308915778        2.2001513305        0.8836119762
 C         -4.7789813377        3.6232734508        0.4262376941
 C         -3.2761182230        3.9188105544        0.3131021744
 H         -3.0550565368        4.8414679485        0.8532013791
 H         -2.7001070981        3.1208051670        0.7855376801
 C         -2.8096063830        4.0989921688       -1.1338108740
 H         -3.5457675796        4.7071478976       -1.6638957438
 H         -1.8680820332        4.6534224986       -1.1320484400
 C         -2.5723686575        2.8072232990       -1.9156526545
 H         -1.6809601123        2.2999384910       -1.5357578913
 H         -2.3671779197        3.0763177458       -2.9543931662
 C         -3.7294463816        1.7952918565       -1.8888759280
 H         -4.6936267202        2.2970466363       -1.9142869022
 H         -3.6405029930        1.1612181865       -2.7749741548
 H         -5.2516294291        3.8242098356       -0.5341388688
 H         -5.2302507047        4.3067629309        1.1473794559
 H         -6.1301220443        1.9443019727        0.5198593890
 H         -5.1671273445        2.1643518201        1.9751033442
 O         -4.0008406160        0.2558822308        1.5488127730
 C         -3.1965948668       -0.8672153701        1.4545932115
 O         -3.0970728610       -1.5208953469        2.5142891482
 H         -0.2967420847       -0.3224230825        1.0596508765
 C          0.2769735765       -0.8941530837        0.3387056388
 C         -0.3077828933       -2.0022053893       -0.2623582226
 C          0.4480552546       -2.7360548426       -1.1671668162
 C          1.7431383174       -2.3539581231       -1.4724802076
 C          2.3122256912       -1.2387390898       -0.8865135606
 C          1.5702647779       -0.5039988788        0.0291615285
 N          2.1418135663        0.6361882176        0.6274234870
 S          3.5817835294        0.4141364880        1.4686671870
 O          3.6751428263       -0.9241707160        2.0056418492
 O          3.6318705981        1.4966167024        2.4273734062
 C          4.8437828577        0.6676736137        0.2391074479
 C          5.7659182586       -0.3286373429       -0.0150102443
 C          6.7464268158       -0.1058547164       -0.9693741970
 C          6.7870809000        1.1024688769       -1.6480969749
 C          5.8544176291        2.0934739652       -1.3795728351
 C          4.8725557900        1.8779622475       -0.4257820798
 H          4.1323032149        2.6223676601       -0.1840922473
 H          5.8890031036        3.0316291808       -1.9096402949
 H          7.5502638847        1.2732203308       -2.3908482587
 H          7.4723562543       -0.8747892277       -1.1793948561
 H          5.6909374239       -1.2536414303        0.5339839760
 H          1.4905596125        1.1567822136        1.1976215998
 H          3.3165259687       -0.9322675899       -1.1293071845
 H          2.3160223390       -2.9314702008       -2.1817020917
 H          0.0215727147       -3.6075137966       -1.6359992612
 C         -1.7152338379       -2.3801618810        0.1344096734
 H         -1.6753258604       -2.8060190042        1.1486701993
 C         -2.3508306387       -3.3945030213       -0.7945654143
 C         -2.1570956452       -4.8619917131       -0.5624951024
 C         -3.4851888185       -4.2277395916       -0.2813013929
 H         -4.3113951730       -4.4396076792       -0.9431249875
 H         -3.7778454278       -4.0829657762        0.7489383096
 H         -1.5511339438       -5.1602538317        0.2798702501
 H         -2.0747781499       -5.5134580819       -1.4194403856
 H         -2.4130674730       -3.0382568232       -1.8162786049
 O         -2.2010265067       -0.5250337579       -2.0048331871
