  62
        -98.94154358
 C         -1.3295832466       -1.5109353314       -0.1283833717
 C         -2.4962816996       -1.1748914693        0.5907108637
 C         -3.2063857085        0.0454926652        0.1682273440
 C         -2.7224809078        0.7568839050       -0.8663002463
 C         -3.2478562413        2.0397627849       -1.4604546286
 C         -4.7689849585        2.1581964706       -1.6405943490
 C         -5.4238439999        3.1406113351       -0.6677377465
 H         -4.7640390786        4.0028012389       -0.5498494852
 H         -6.3560888894        3.5004968838       -1.1087672081
 C         -5.7554692587        2.5691161073        0.7095021315
 H         -6.0805481966        3.3982653629        1.3422828110
 H         -6.5961537389        1.8774886759        0.6216774380
 C         -4.6051988441        1.8418908247        1.4084725144
 H         -3.6675175299        2.3803029160        1.2680692427
 H         -4.8116844625        1.8408666696        2.4811267797
 C         -4.4403390706        0.3815490210        0.9606080091
 H         -4.3887968307       -0.2682567415        1.8399594946
 H         -5.3226255968        0.0607221967        0.3994639656
 H         -4.9544795212        2.5170030496       -2.6543090417
 H         -5.2300482360        1.1755737582       -1.5565352262
 H         -2.8763817626        2.8691786928       -0.8522459367
 H         -2.7519962416        2.1244607957       -2.4303769366
 O         -1.5952078509        0.3893060535       -1.5381852991
 C         -0.8596911245       -0.7221948348       -1.1762605288
 O          0.1656973400       -0.9097560195       -1.8600848228
 O         -2.9257947979       -1.8631371933        1.5585181363
 C         -0.5249844349       -2.7287643465        0.2836019534
 C          0.8971578869       -2.3361239147        0.6010951695
 C          1.9923203824       -3.1301898488        0.2821842001
 C          3.2768079031       -2.7135741304        0.5869386282
 C          3.4991712030       -1.4902568829        1.1921918341
 C          2.4098524837       -0.6932924342        1.5226894260
 C          1.1241626483       -1.1311101692        1.2537227504
 H          0.2914570696       -0.4965308581        1.5207811293
 N          2.5751816050        0.5800215100        2.1117648997
 S          2.1237935210        1.8854622819        1.1576738739
 O          2.4830021983        3.0567716866        1.9295934659
 O          0.7376278451        1.7691136454        0.7859927563
 C          3.1986762257        1.7612646550       -0.2607905946
 C          4.3821800402        2.4756005313       -0.2463272423
 C          5.2741027635        2.3209816311       -1.2944368810
 C          4.9739113941        1.4480669317       -2.3297818791
 C          3.7841365824        0.7371576174       -2.3268575849
 C          2.8827708988        0.8893415992       -1.2832356069
 H          1.9488147469        0.3480977608       -1.2680691738
 H          3.5423745041        0.0569728497       -3.1277801823
 H          5.6697078014        1.3210407255       -3.1441430599
 H          6.1984214107        2.8758895063       -1.2990344545
 H          4.5699610353        3.1433036920        0.5791738147
 H          3.5104870875        0.7434162918        2.4609816941
 H          4.5018334782       -1.1514958405        1.4056318310
 H          4.1164199865       -3.3417574755        0.3320034827
 H          1.8393373733       -4.0759952276       -0.2114600500
 H         -0.9982800200       -3.0959431228        1.2070278939
 C         -0.6238390167       -3.8076872521       -0.7763524421
 C         -0.5998917367       -5.2567322374       -0.3934132336
 C         -1.8769635773       -4.6253739100       -0.8570417625
 H         -2.2613765438       -4.8861426714       -1.8316459710
 H         -2.6452997687       -4.4224910355       -0.1252001969
 H         -0.1087722598       -5.9563022907       -1.0529017951
 H         -0.5075448504       -5.4960872079        0.6551751564
 H         -0.1570113951       -3.5139508489       -1.7100414386
