  62
        -98.93520820
 C          1.6857794325        0.0650228161        0.8544554201
 C          2.8781664819        0.8194569075        0.7576442028
 C          4.1107652710        0.0700745699        0.4421933774
 C          4.0504570648       -1.2558396280        0.2237373934
 C          5.1317878932       -2.2692053669       -0.0889267131
 C          6.5243898248       -1.8197739952       -0.5235793269
 C          6.5809733543       -1.1424427442       -1.8925873589
 H          7.5974287043       -0.7748665442       -2.0497221233
 H          6.3767284240       -1.8931556236       -2.6602071023
 C          5.5990349517        0.0077103625       -2.1017753015
 H          5.7444600481        0.3908569559       -3.1155517931
 H          4.5752879616       -0.3680141322       -2.0448967598
 C          5.7509080791        1.1810762167       -1.1359698338
 H          6.7800774318        1.5449763676       -1.1574644099
 H          5.1036926195        1.9866945520       -1.4930626253
 C          5.3632043234        0.8906221978        0.3240341879
 H          6.1810512369        0.4216413202        0.8655321627
 H          5.1521047245        1.8465521021        0.8119855499
 H          7.1391248331       -2.7224851963       -0.5776238694
 H          6.9690632487       -1.1827753822        0.2353246693
 H          5.2328618803       -2.8827364239        0.8131860945
 H          4.7107063402       -2.9230382207       -0.8592964111
 O          2.8723629040       -1.9405634442        0.3096757735
 C          1.6830425802       -1.3136531711        0.6239349960
 O          0.7004003649       -2.0804751196        0.6708655144
 H         -2.0841270960        0.0421202894        0.1879838487
 C         -1.6138320774        0.8377571450       -0.3693840803
 C         -0.3457784566        1.2700590376       -0.0104972195
 C          0.2538060681        2.2808976572       -0.7537441356
 C         -0.4078420376        2.8394809939       -1.8317425617
 C         -1.6837464565        2.4238691022       -2.1708504300
 C         -2.2933509908        1.4181789532       -1.4308205772
 N         -3.5841386943        0.9702043960       -1.7447758765
 S         -4.6560576083        0.5919481104       -0.5154633033
 O         -5.9633104936        0.7340206607       -1.1201274435
 O         -4.4113177625        1.3851958825        0.6658856776
 C         -4.3629610036       -1.1306090426       -0.1790355428
 C         -4.4175947140       -2.0223530071       -1.2316459987
 C         -4.2106139251       -3.3685650624       -0.9788930294
 C         -3.9562979180       -3.7983251203        0.3147890499
 C         -3.9092408866       -2.8911709836        1.3616369556
 C         -4.1153610761       -1.5432747907        1.1148057964
 H         -4.0825482140       -0.8036407936        1.8998480560
 H         -3.7087651288       -3.2268363569        2.3665873086
 H         -3.7922064392       -4.8463392870        0.5097658758
 H         -4.2457532858       -4.0786650980       -1.7894067091
 H         -4.6210355668       -1.6511441806       -2.2222565518
 H         -4.0356522363        1.4660381802       -2.4994257570
 H         -2.2050962805        2.8737391566       -3.0023683241
 H          0.0688288167        3.6193947843       -2.4064868420
 H          1.2390240056        2.6229982898       -0.4771073288
 C          0.3303081530        0.6609577011        1.1946353157
 H         -0.2887572602       -0.1857790637        1.5216400275
 C          0.3746190588        1.6790959260        2.3199037770
 C         -0.9114782846        2.0791270438        2.9763753993
 C          0.0827444746        1.2407669127        3.7215786470
 H          0.6366891574        1.6948016813        4.5295850358
 H         -0.1475453569        0.1974021998        3.8821141906
 H         -1.0373276719        3.1097686696        3.2716658286
 H         -1.8225886837        1.6161242003        2.6253695914
 H          1.1265523362        2.4437259292        2.1777503892
 O          2.9463504570        2.0663264544        0.9266254935
