  62
        -98.94873717
 C         -1.0751166068       -1.7051291601        0.1300592339
 C         -1.6633516058       -0.8934876882        1.1283828110
 C         -2.8252586312       -0.0970935330        0.7130856726
 C         -3.2576330931       -0.1800194467       -0.5583190153
 C         -4.4207448798        0.5856789996       -1.1185548434
 C         -3.9812505770        1.9213884249       -1.7323836278
 C         -3.0894328166        2.7653905004       -0.8213654644
 H         -2.1197903871        2.2728877477       -0.7124525892
 H         -2.8969587144        3.7065913656       -1.3422204334
 C         -3.6867358697        3.0609859378        0.5615137779
 H         -3.5104079744        4.1129654576        0.7963369021
 H         -4.7669557986        2.9105076882        0.5371195476
 C         -3.0841790288        2.2443743670        1.7058834758
 H         -1.9942683467        2.3127688000        1.6595294689
 H         -3.4002934740        2.6978777389        2.6492882229
 C         -3.4821985741        0.7638095054        1.7555061952
 H         -3.1563735593        0.3636284493        2.7203468411
 H         -4.5691732565        0.6753501193        1.6971771128
 H         -3.4256895950        1.7171270182       -2.6508559483
 H         -4.8766907177        2.4889862674       -1.9947628158
 H         -4.8860199665       -0.0228345843       -1.8963782486
 H         -5.1465155352        0.7611517385       -0.3262206244
 O         -2.6669236813       -0.9683960428       -1.4920081300
 C         -1.5521868888       -1.7351221623       -1.1808120061
 O         -1.0981404143       -2.3919005882       -2.1371964443
 O         -1.2393748219       -0.8413562542        2.3151348529
 C          0.1376964266       -2.5382419805        0.4918058828
 C          1.3715693910       -2.1058578982       -0.2656566079
 C          2.4607825152       -2.9518709059       -0.4480957722
 C          3.5908881718       -2.5060964417       -1.1102771009
 C          3.6719972032       -1.2104897106       -1.5891297918
 C          2.5892874450       -0.3571050818       -1.4123565367
 C          1.4568451318       -0.8117397891       -0.7552398350
 H          0.6135594278       -0.1482151283       -0.6559341325
 N          2.6170517214        0.9588602085       -1.8912411330
 S          1.7500279560        2.1709871072       -1.1417385743
 O          0.3380946521        2.0138658254       -1.3842586810
 O          2.3465828790        3.3891864907       -1.6473338880
 C          2.1132226538        2.0016406593        0.5956035523
 C          3.3965157691        2.2866344795        1.0212338957
 C          3.7111685036        2.1214304682        2.3598293229
 C          2.7456381119        1.6670928256        3.2464253396
 C          1.4612159451        1.3902290964        2.8059873876
 C          1.1410724322        1.5627210307        1.4691386809
 H          0.1495955683        1.3501780014        1.1008291690
 H          0.7023879711        1.0236682510        3.4793021154
 H          2.9932928322        1.5293315179        4.2870899346
 H          4.7075092113        2.3416058926        2.7077708100
 H          4.1173184184        2.6448367282        0.3044366597
 H          3.5051683876        1.2772547809       -2.2473493478
 H          4.5548673647       -0.8650430318       -2.1043471133
 H          4.4255669146       -3.1757729067       -1.2509001926
 H          2.4191624594       -3.9628199909       -0.0764891047
 H          0.3177471897       -2.3377645023        1.5599401185
 C         -0.1586873750       -4.0162837853        0.3211967690
 C          0.3851613166       -5.0241244288        1.2881827638
 C         -1.0743019799       -4.6866706251        1.3003932453
 H         -1.7810311389       -5.4145899047        0.9312905170
 H         -1.4534845126       -4.0844373776        2.1132910698
 H          0.6820972963       -5.9909942440        0.9104812918
 H          0.9896933753       -4.6617085932        2.1059588385
 H         -0.2485481717       -4.3019602237       -0.7207681455
