  62
        -98.93666151
 C          1.1808986720        1.0310131693        0.7823190611
 C          1.6698757391        0.7198274774       -0.5112519639
 C          2.5024509388       -0.4919583197       -0.6001154505
 C          2.6662105124       -1.2672982169        0.4855412443
 C          3.5377650560       -2.4877077687        0.5483279814
 C          4.9598390739       -2.1274295443        1.0010938107
 C          5.5740053953       -0.9566962668        0.2332893974
 H          5.0162230053       -0.0463135147        0.4645291813
 H          6.5885481929       -0.8160893992        0.6126065943
 C          5.6196624117       -1.1490618214       -1.2891494062
 H          6.6030144270       -0.8411555272       -1.6508941595
 H          5.5027379969       -2.2055441791       -1.5332443536
 C          4.5844089634       -0.3309144365       -2.0636024135
 H          4.8452760632       -0.3711981174       -3.1245339098
 H          4.6393002285        0.7155257552       -1.7531610257
 C          3.1290720705       -0.7977691812       -1.9313460535
 H          2.5386729920       -0.2515409347       -2.6727732914
 H          3.0648930164       -1.8641982174       -2.1562713097
 H          4.9305333909       -1.8637771536        2.0609114794
 H          5.5921911201       -3.0100777747        0.8888314832
 H          3.1049378249       -3.1854513628        1.2670903940
 H          3.5718514355       -2.9595401453       -0.4319121319
 O          2.0793841009       -0.9978966261        1.6796670747
 C          1.3415317544        0.1565082902        1.8597864055
 O          0.8756609442        0.2900003273        3.0113326995
 H         -1.7129785101        0.9418603754        1.8067988477
 C         -1.9017964095        1.4020568340        0.8443922613
 C         -0.9130613410        2.2034916423        0.2776557775
 C         -1.1633488740        2.7519429062       -0.9736661740
 C         -2.3690969694        2.5209751049       -1.6169252450
 C         -3.3476171705        1.7304149398       -1.0438933600
 C         -3.1004932032        1.1571411266        0.1965294945
 N         -4.0695754341        0.3028494103        0.7742574825
 S         -4.2928572933       -1.1470542157       -0.0350686172
 O         -4.8845977698       -0.8729791176       -1.3189751090
 O         -5.0606961577       -1.9817425533        0.8600843054
 C         -2.6540262498       -1.8196270183       -0.2495802754
 C         -2.1711185727       -2.7076145594        0.6903211454
 C         -0.8853720748       -3.2029273574        0.5464417697
 C         -0.1041619471       -2.7913088092       -0.5217469443
 C         -0.5968280453       -1.8852474983       -1.4478153409
 C         -1.8852799397       -1.3946481361       -1.3150339868
 H         -2.3027134957       -0.6978804813       -2.0232771703
 H          0.0204268931       -1.5524825818       -2.2667998470
 H          0.8963309869       -3.1773727323       -0.6331890327
 H         -0.4947708170       -3.9028824922        1.2677013342
 H         -2.8130324968       -3.0057710329        1.5039913469
 H         -3.8837002648        0.1052803398        1.7483268603
 H         -4.2793756666        1.5238323030       -1.5447798198
 H         -2.5429200121        2.9601189166       -2.5877170022
 H         -0.4127559470        3.3354354073       -1.4747505229
 C          0.3721029359        2.2944701630        1.0616116608
 H          0.0873625779        2.2036199552        2.1212793847
 C          1.2333358553        3.5479408522        0.9988072574
 C          1.7748621752        4.1999036406       -0.2361817188
 C          0.7219321831        4.8923720056        0.5752569198
 H          1.0124702627        5.7535566836        1.1586629439
 H         -0.2800318431        4.9498395097        0.1805773295
 H          2.7855358600        4.5811928801       -0.1882236253
 H          1.5296169524        3.7742213540       -1.1942990914
 H          1.9149816701        3.5509803854        1.8471163025
 O          1.4413847941        1.4013114869       -1.5394806903
