  62
        -98.93457578
 C          2.0863741564        1.2723878031       -0.0036649295
 C          2.3961438375        0.0409521326       -0.6294099616
 C          3.8033614375       -0.4039858746       -0.5475164989
 C          4.7047930148        0.3456675042        0.1115034336
 C          6.1956010789        0.1716934187        0.3144725495
 C          6.8754488709       -1.1610781980        0.0125672113
 C          6.4837782761       -2.3046649205        0.9480513174
 H          6.9022546123       -2.1026693306        1.9373085011
 H          6.9414160083       -3.2235614712        0.5751489383
 C          4.9839176347       -2.5314343000        1.1212755909
 H          4.5300853153       -1.6516594737        1.5822107830
 H          4.8496219846       -3.3634150443        1.8179623132
 C          4.2209517712       -2.8705188129       -0.1576989618
 H          3.2051021038       -3.1554226597        0.1303415248
 H          4.6836536212       -3.7313591842       -0.6445853210
 C          4.1065508188       -1.7300702046       -1.1835309093
 H          3.2624386056       -1.9553701919       -1.8421441127
 H          4.9969395646       -1.6653112556       -1.8045079835
 H          7.9500916313       -0.9949805062        0.1273552291
 H          6.7105114496       -1.4421981835       -1.0234261341
 H          6.6701459173        0.9479415803       -0.2962206696
 H          6.3868970056        0.4424756942        1.3577602700
 O          4.3540057455        1.5199561623        0.7139488345
 C          3.0571585514        1.9977096865        0.6910400931
 O          2.8965757281        3.0628126539        1.3195161984
 H         -1.0807023927        0.4359821438       -1.5476204927
 C         -1.1405929358        0.1652236995       -0.5052044831
 C         -0.3091439336        0.7848956144        0.4141197479
 C         -0.3820472712        0.3958882946        1.7480707687
 C         -1.2577570708       -0.5959588187        2.1488870609
 C         -2.0760641855       -1.2231550635        1.2264012434
 C         -2.0078389306       -0.8440969716       -0.1077660756
 N         -2.8284999920       -1.4845689608       -1.0504357718
 S         -4.4418627879       -1.7083232929       -0.6830803021
 O         -4.5917941411       -2.8298663441        0.2104764160
 O         -5.1108019613       -1.8230574330       -1.9598840012
 C         -4.9300535673       -0.2049471679        0.1444766890
 C         -4.9023160080        0.9698344558       -0.5811224093
 C         -5.2325223061        2.1568942675        0.0514263755
 C         -5.5797902448        2.1496702575        1.3939849400
 C         -5.6061447267        0.9619335581        2.1077052987
 C         -5.2765037696       -0.2287763571        1.4796766577
 H         -5.2851525545       -1.1738911255        1.9974836773
 H         -5.8788473569        0.9595147496        3.1507380304
 H         -5.8327340301        3.0759348865        1.8853301345
 H         -5.2154088383        3.0822200452       -0.5018058854
 H         -4.6356086157        0.9374540108       -1.6252959378
 H         -2.6960845026       -1.1650109659       -1.9979936729
 H         -2.7507297351       -2.0124799940        1.5158154580
 H         -1.3002036212       -0.8889198374        3.1870135092
 H          0.2671519008        0.8762186288        2.4676676622
 C          0.6802967169        1.8505861058        0.0153154527
 H          0.7012133426        2.6070704817        0.8160298363
 C          0.2829977223        2.5834369908       -1.2578365993
 C          1.2836495292        3.4209479814       -1.9954026962
 C          0.7468717015        2.1701745862       -2.6208243853
 H          0.0564293849        2.2688034594       -3.4463240607
 H          1.3949600277        1.3116356496       -2.6966647051
 H          2.3007086589        3.4152493413       -1.6306838408
 H          0.9673532221        4.3741410677       -2.3913195362
 H         -0.7234718648        2.9854042960       -1.1887649247
 O          1.5594832957       -0.6658675328       -1.2474121970
