  62
        -98.94118140
 C         -1.6343112799       -0.5102159199        0.9132150897
 C         -2.8652508098       -1.0713037798        0.4943846695
 C         -3.9964802997       -0.1347456898        0.3944354492
 C         -3.8120140497        1.1664811802        0.6788025692
 C         -4.8642757596        2.2304341803        0.5647391290
 C         -4.8533105194        2.8796621202       -0.8261750710
 C         -4.8510876292        1.8737562302       -1.9772316910
 H         -4.8753620290        2.4445230702       -2.9080723210
 H         -3.9096641493        1.3195334102       -1.9649013808
 C         -6.0223753493        0.8818504403       -1.9556034112
 H         -6.8181446794        1.2613661003       -1.3135271513
 H         -6.4316164891        0.8009765203       -2.9648853312
 C         -5.6461463094       -0.5333128897       -1.5129088310
 H         -4.7870952794       -0.8820574198       -2.0915846009
 H         -6.4854915694       -1.1953998697       -1.7420860312
 C         -5.3241378897       -0.7029153197       -0.0228588010
 H         -6.1305725698       -0.2783399596        0.5785178889
 H         -5.2695898698       -1.7756805397        0.1840971391
 H         -5.7262346993        3.5296171203       -0.9101750912
 H         -3.9579309493        3.4994586102       -0.9120181209
 H         -5.8398934797        1.7913905704        0.7641580888
 H         -4.6606906697        2.9963246703        1.3150114190
 O         -2.6135063398        1.6729011902        1.0646997894
 C         -1.5039954198        0.8556369101        1.1873589296
 O         -0.4704596199        1.4512987101        1.5508987298
 H          2.0010775403       -0.3233695301        0.3081959103
 C          1.5710056304       -0.9581600101       -0.4509028398
 C          0.3364946003       -1.5498189100       -0.2263009600
 C         -0.2189255796       -2.3456506400       -1.2225602700
 C          0.4602194506       -2.5488032901       -2.4097922499
 C          1.7046789507       -1.9807456102       -2.6193101697
 C          2.2643902506       -1.1766215602       -1.6329358597
 N          3.5095351406       -0.5683195502       -1.8287245395
 S          4.5420246804       -0.2441459502       -0.5565486993
 O          5.8372481805       -0.0887949703       -1.1835216491
 O          4.4539956802       -1.2508028502        0.4751142507
 C          4.0039924904        1.3363587398        0.0586117305
 C          3.9048328706        2.3830089298       -0.8363387595
 C          3.4986434006        3.6231907998       -0.3723594496
 C          3.2016514004        3.7954142999        0.9711565703
 C          3.3110996802        2.7362307199        1.8579292904
 C          3.7173939502        1.4934696099        1.3993962905
 H          3.8098039200        0.6424442699        2.0563977305
 H          3.0741382000        2.8704849300        2.9010974003
 H          2.8804246504        4.7602028299        1.3308201802
 H          3.4114124207        4.4508994398       -1.0578411897
 H          4.1469462908        2.2112457597       -1.8719753195
 H          3.9981429907       -0.8364028503       -2.6696803594
 H          2.2391469608       -2.1536702202       -3.5411254796
 H          0.0209172407       -3.1667964101       -3.1784813700
 H         -1.1883453596       -2.7909316100       -1.0604438802
 C         -0.3625571699       -1.3238020099        1.0928926399
 H          0.2993949100       -0.7009606599        1.7100789700
 C         -0.5800745401       -2.6402019399        1.8141333799
 C          0.6079640397       -3.3349387599        2.4060577701
 C         -0.4120512204       -2.6980213698        3.3008860899
 H         -1.0708153205       -3.3375473498        3.8690838499
 H         -0.1437267904       -1.7841602898        3.8111403600
 H          1.5710365398       -2.8557441800        2.3032845403
 H          0.6500559497       -4.4124628099        2.3603189602
 H         -1.3565835301       -3.2524531299        1.3759760398
 O         -3.0400704998       -2.2872029698        0.2157492895
