  62
        -98.93684399
 C         -1.6496674399       -1.5441446988        0.2402388809
 C         -1.4591914893       -0.2201646990       -0.2292625094
 C         -2.4906920591        0.7494940814        0.1711876102
 C         -3.5110286094        0.3693308619        0.9590341901
 C         -4.6218848492        1.2494431524        1.4641978797
 C         -5.7815279389        1.4210853726        0.4735012595
 C         -5.4771387584        2.3051784722       -0.7365252007
 H         -5.0703778982        3.2577321721       -0.3958033008
 H         -6.4297072983        2.5150671824       -1.2272459909
 C         -4.5240650784        1.6716739417       -1.7596977204
 H         -4.9218902782        1.8183909016       -2.7665199005
 H         -4.4730694588        0.5934878017       -1.5909429601
 C         -3.1061811182        2.2429692912       -1.7445512902
 H         -3.1330833478        3.2936525711       -2.0416185205
 H         -2.5113263783        1.6991227908       -2.4825707300
 C         -2.3942255785        2.1360514413       -0.3895337701
 H         -2.8110050684        2.8589911116        0.3109382697
 H         -1.3351820684        2.3555756309       -0.5402661799
 H         -6.6154594289        1.8660890630        1.0213707692
 H         -6.0991342192        0.4329306126        0.1323511296
 H         -4.2228867089        2.2281144723        1.7316563096
 H         -5.0093701295        0.7727189527        2.3672117798
 O         -3.6404055099       -0.9044869979        1.4167972304
 C         -2.7357374201       -1.8846484883        1.0542685108
 O         -2.9979719706       -3.0132929781        1.5193589810
 O         -0.4974332291        0.1601328005       -0.9431073093
 C         -0.7063408902       -2.6966738192       -0.0948613787
 C          0.7058777598       -2.3480026896        0.3016057215
 C          1.1175637995       -2.6891774995        1.5889022517
 C          2.3736037395       -2.3479944998        2.0548310618
 C          3.2570833199       -1.6517920503        1.2487775119
 C          2.8560824903       -1.2953731604       -0.0309062183
 C          1.5971284702       -1.6498509601       -0.4992354185
 H          1.3122256205       -1.3300630402       -1.4858321786
 N          3.7339993907       -0.5772899609       -0.8684221283
 S          4.3550650110        0.8736935790       -0.3141956685
 O          4.9719813215        1.4859683286       -1.4689312285
 O          5.2234331107        0.6145659990        0.8072378717
 C          2.9551885013        1.8428905496        0.2137192810
 C          2.4575742510        1.6722577101        1.4895962710
 C          1.3496297411        2.4075985605        1.8778398906
 C          0.7657921316        3.2985751605        0.9914841003
 C          1.2765389019        3.4562416401       -0.2875705997
 C          2.3776213117        2.7167145696       -0.6848400393
 H          2.8077461419        2.8111609792       -1.6690805292
 H          0.8168967022        4.1471954301       -0.9764295399
 H         -0.0940719383        3.8722841009        1.3002185000
 H          0.9438661909        2.2811129409        2.8690599805
 H          2.9435780106        0.9786122201        2.1560579512
 H          3.3608639309       -0.4389540310       -1.7974177384
 H          4.2374099799       -1.3676811605        1.5958147720
 H          2.6689041492       -2.6269101797        3.0551069220
 H          0.4308688192       -3.2221313891        2.2321849917
 H         -1.0227588306       -3.5051953590        0.5812938315
 C         -0.9726703901       -3.2340016795       -1.4975620286
 C         -0.7184745096       -2.4931615298       -2.7750830287
 C          0.0939085999       -3.7073018700       -2.4380697983
 H         -0.0892773503       -4.6125391001       -2.9977852281
 H          1.1237233799       -3.5758074003       -2.1451357081
 H         -1.4620022195       -2.5778158698       -3.5554780888
 H         -0.2727512093       -1.5136752000       -2.7217272188
 H         -1.8886854503       -3.8201107792       -1.4886801086
