  62
        -98.93306330
 C         -2.6280823783       -1.3478813500        0.3329862992
 C         -2.8736342251       -0.4811393981       -0.7587527173
 C         -3.8809009974        0.5754204472       -0.5406328526
 C         -4.5039247224        0.6703266740        0.6453852793
 C         -5.5783319307        1.6394566384        1.0710636722
 C         -5.4089611633        3.1108112315        0.6677903748
 C         -3.9563601211        3.6047674279        0.6047025657
 H         -3.8708085957        4.5282812399        1.1802410270
 H         -3.2908391093        2.8718569920        1.0642958193
 C         -3.4861629859        3.8969877661       -0.8223613724
 H         -4.2830613843        4.4215748035       -1.3539263485
 H         -2.6255539063        4.5688757061       -0.7783375659
 C         -3.0636945261        2.6746912200       -1.6363418715
 H         -2.1298047398        2.2702128002       -1.2360364476
 H         -2.8571505308        3.0042881513       -2.6576503849
 C         -4.0853323932        1.5264527296       -1.6851192221
 H         -5.1035810231        1.9060017928       -1.7161629598
 H         -3.9002036753        0.9499797980       -2.5956543393
 H         -5.8835632729        3.2817241930       -0.2975068559
 H         -5.9627467778        3.7026255985        1.3984877140
 H         -6.5362259606        1.2727810891        0.6908166903
 H         -5.6137598141        1.5605379637        2.1602381671
 O         -4.2394134401       -0.1882045840        1.6703574504
 C         -3.3065689801       -1.1999853303        1.5459544255
 O         -3.1746296050       -1.9005566434        2.5691511922
 H         -0.2721388224       -0.4812677702       -0.9075219380
 C          0.3135012342       -0.9500738955       -0.1300714105
 C         -0.2322749728       -2.0076836784        0.5849152567
 C          0.5395367912       -2.6124900463        1.5695308460
 C          1.8235234630       -2.1658084200        1.8300347781
 C          2.3619991179       -1.1095665626        1.1173237308
 C          1.6000732139       -0.4997564399        0.1289664404
 N          2.1314010358        0.5818647613       -0.5951283994
 S          3.6536224880        0.3997287996       -1.2811616811
 O          3.6867612018        1.3305932704       -2.3874146752
 O          3.9287059918       -0.9833388118       -1.5952163961
 C          4.7628072467        0.9706633047       -0.0105917765
 C          5.7926214432        0.1585181912        0.4222068764
 C          6.6480441573        0.6284926995        1.4067625454
 C          6.4600192608        1.8955721937        1.9371554013
 C          5.4227864522        2.7001502921        1.4891358416
 C          4.5649526077        2.2367899846        0.5045256378
 H          3.7496177095        2.8310915667        0.1270286543
 H          5.2796141500        3.6850097086        1.9038003399
 H          7.1256227251        2.2586178919        2.7042678292
 H          7.4552848318        0.0049960607        1.7560072970
 H          5.8965681312       -0.8216527073       -0.0152960256
 H          1.4845668128        0.9664319071       -1.2689919383
 H          3.3611370949       -0.7580028108        1.3162150765
 H          2.4114682805       -2.6437266350        2.5986114601
 H          0.1222942587       -3.4306400086        2.1382941532
 C         -1.6277586312       -2.4920785634        0.2845718349
 H         -1.9270422307       -3.1647080204        1.1034399862
 C         -1.7129320421       -3.2926846332       -1.0098227718
 C         -0.6189933758       -3.3558263351       -2.0294817987
 C         -0.9039798854       -4.5462246220       -1.1669110052
 H         -1.3693381716       -5.4127875449       -1.6114849098
 H         -0.1916729867       -4.7761428954       -0.3886948818
 H         -0.9081039669       -3.3836790702       -3.0693040760
 H          0.2905205814       -2.8028460629       -1.8510153118
 H         -2.7257263360       -3.3200148879       -1.3991333035
 O         -2.2964237829       -0.5645460176       -1.8745783261
