  62
        -98.94467510
 C         -0.6165583026       -1.6906686763       -1.0108119536
 C         -1.8166291633       -2.0062705863       -0.3255075249
 C         -2.9313608520       -1.0646288246       -0.4816753033
 C         -2.7599945503        0.0322402269       -1.2404406107
 C         -3.8028178589        1.0871295187       -1.4745682588
 C         -3.7055834179        2.2270673863       -0.4520903062
 C         -3.6037398592        1.7565748129        0.9988906628
 H         -2.6472046999        1.2488020514        1.1493974521
 H         -3.5817884183        2.6505191215        1.6275815048
 C         -4.7521145105        0.8444396633        1.4527712302
 H         -5.0765930306        1.1647095315        2.4452672808
 H         -5.6037480201        0.9586441059        0.7803537501
 C         -4.3871523224       -0.6372610674        1.5625443470
 H         -5.1809209733       -1.1424650077        2.1199528455
 H         -3.4632002128       -0.7415002498        2.1380310072
 C         -4.2134789527       -1.3825194246        0.2332047654
 H         -4.1759343342       -2.4534948352        0.4536447730
 H         -5.0752096522       -1.1934739621       -0.4107105645
 H         -4.5824163671        2.8679654377       -0.5670462551
 H         -2.8190800171        2.8255397657       -0.6757026144
 H         -4.7881121395        0.6271706699       -1.4230846003
 H         -3.6559626179        1.4967286708       -2.4757750778
 O         -1.5958325197        0.3115823369       -1.8744240696
 C         -0.4839981008       -0.5193422448       -1.7578085809
 O          0.5122739500       -0.0993744146       -2.3715295795
 O         -1.9518596449       -3.0467702078        0.3755825127
 C          0.5480502361       -2.6439155982       -0.8015964453
 C          1.2686364860       -2.2742273020        0.4705672959
 C          1.6307908244       -3.2312221046        1.4107166639
 C          2.2467876043       -2.8552658880        2.5919358150
 C          2.4837374059       -1.5209433789        2.8704973382
 C          2.1224820575       -0.5571152264        1.9360615402
 C          1.5497056976       -0.9417103229        0.7344575590
 H          1.2851378288       -0.1882748110        0.0095240106
 N          2.3216181591        0.8108022728        2.1730720833
 S          1.1568066707        1.8891929555        1.6274001952
 O          1.3240655818        3.0536514834        2.4750959580
 O         -0.1611140300        1.2976868972        1.6333906433
 C          1.6604011020        2.3205586786       -0.0222081635
 C          3.0039771522        2.3446563077       -0.3378348829
 C          3.3815751532        2.7262814501       -1.6146051119
 C          2.4172551541        3.0822016034       -2.5447585715
 C          1.0735245039        3.0595810843       -2.2093375321
 C          0.6896240529        2.6761226519       -0.9351928632
 H         -0.3468426473        2.6218605625       -0.6396862338
 H          0.3216297546        3.3231162569       -2.9357160719
 H          2.7131120249        3.3720182852       -3.5407350307
 H          4.4259736434        2.7388883694       -1.8825885814
 H          3.7256492415        2.0540662151        0.4076648568
 H          2.6500158990        1.0459928903        3.0985246740
 H          2.9338802658       -1.2245882916        3.8056515790
 H          2.5240759531       -3.6070505600        3.3152164135
 H          1.4059814132       -4.2707605539        1.2227045115
 H          0.0870358448       -3.6321465180       -0.6412960877
 C          1.4782963265       -2.7606375767       -1.9987555951
 C          2.8371622173       -2.1359024183       -2.0439179031
 C          2.7039820354       -3.6220800584       -1.9167661265
 H          2.9570037650       -4.2403867668       -2.7645416778
 H          2.9393865844       -4.0634269309       -0.9601920574
 H          3.1613944783       -1.7158709066       -2.9831573020
 H          3.1661933276       -1.5755507806       -1.1829042217
 H          0.9290802669       -2.7815933239       -2.9341850854
