  62
        -98.93925941
 C         -2.4688070851       -0.8547384980        0.7906536295
 C         -3.2433751805       -0.5068346269       -0.3431942612
 C         -3.9735208738        0.7644284900       -0.2481249268
 C         -3.8684395037        1.5193178254        0.8601938876
 C         -4.5740621064        2.8236085647        1.1153976581
 C         -3.8683909964        4.0465370708        0.5135118090
 C         -3.9558892806        4.1648152621       -1.0085811403
 H         -4.9979950064        4.0836264688       -1.3189829410
 H         -3.6148449321        5.1678988011       -1.2722207968
 C         -3.1077340805        3.1387126805       -1.7733108777
 H         -2.5570181261        3.6422465649       -2.5709965571
 H         -2.3655776719        2.7026333336       -1.1003055107
 C         -3.9097137365        2.0096703167       -2.4205968166
 H         -4.5594665102        2.4197607460       -3.1969971847
 H         -3.2076354738        1.3205437254       -2.8972674974
 C         -4.7705559355        1.2041601297       -1.4389296158
 H         -5.6332621497        1.7912485907       -1.1247352126
 H         -5.1242726233        0.3062831214       -1.9514979965
 H         -2.8192855791        4.0294179965        0.8174508151
 H         -4.3274425488        4.9353978776        0.9523812091
 H         -5.5943537072        2.7672562455        0.7351094393
 H         -4.6133525665        2.9481867221        2.1996931003
 O         -3.0932999224        1.1599264200        1.9185129487
 C         -2.3615635217       -0.0151203196        1.8998921316
 O         -1.6615810364       -0.1985635901        2.9180197687
 H          0.3988843690       -0.5118503085        0.9802614046
 C          0.4622291651       -1.1068616397        0.0769172950
 C         -0.5382383769       -2.0374018360       -0.1813788953
 C         -0.4520592650       -2.8026255546       -1.3354776281
 C          0.6051747623       -2.6249856241       -2.2124545254
 C          1.5936440794       -1.6931527342       -1.9573128244
 C          1.5217064144       -0.9279829389       -0.7992450511
 N          2.5211779804        0.0297704390       -0.5304703810
 S          4.1200860540       -0.4990733069       -0.6973822974
 O          4.4686057795       -0.4565081550       -2.0952375417
 O          4.2891650578       -1.7780728413       -0.0441357239
 C          5.0079459465        0.7705569844        0.1820232542
 C          5.3776968639        0.5507184712        1.4952407923
 C          6.0572871701        1.5486922357        2.1759417940
 C          6.3510418122        2.7434414402        1.5360954069
 C          5.9722908892        2.9494743763        0.2177169256
 C          5.2938993030        1.9554413518       -0.4692315984
 H          4.9888476355        2.0665642171       -1.4965907055
 H          6.2049546487        3.8789386059       -0.2764171366
 H          6.8812383450        3.5175843945        2.0679485955
 H          6.3551380010        1.3902228342        3.1999353488
 H          5.1368682251       -0.3970222945        1.9499508329
 H          2.3871798969        0.4608625084        0.3747427579
 H          2.4243652573       -1.5544470332       -2.6301928636
 H          0.6599299931       -3.2227321425       -3.1099588953
 H         -1.2153359054       -3.5303425544       -1.5549525169
 C         -1.6657740977       -2.1452846928        0.8176181169
 H         -1.2173078801       -2.1988380916        1.8199152668
 C         -2.5545788820       -3.3537326946        0.6201758969
 C         -2.0722057836       -4.7035933086        1.0558222937
 C         -3.1605572848       -4.0135932416        1.8206833507
 H         -4.1674143466       -4.3957449253        1.7447782664
 H         -2.9228906719       -3.6008335238        2.7905510418
 H         -2.3315499356       -5.5629470756        0.4565193022
 H         -1.0925981181       -4.7613225546        1.5062572436
 H         -3.1638281059       -3.2919245495       -0.2728815436
 O         -3.3348459868       -1.2151613097       -1.3783359105
