  62
        -98.93687231
 C         -1.5030398559       -1.6590216130       -0.0832594929
 C         -1.3380843020       -0.2684580956        0.1352018675
 C         -2.5448764102        0.4481659097        0.5769648828
 C         -3.6993832287       -0.2158851870        0.7585208226
 C         -5.0045199091        0.3800721868        1.2123669919
 C         -5.8265171576        1.0148440333        0.0820742581
 C         -5.2794950867        2.3364357506       -0.4593204176
 H         -6.0614472297        2.7737733090       -1.0834314839
 H         -5.1036994145        3.0221475925        0.3699417579
 C         -4.0001183771        2.1976643626       -1.2965952182
 H         -4.0960028565        2.7921978362       -2.2080670135
 H         -3.8789250142        1.1570118104       -1.6063540486
 C         -2.7249646905        2.6546378852       -0.5875633840
 H         -2.7781495978        3.7287050501       -0.3977355968
 H         -1.8778919476        2.4677328925       -1.2519606187
 C         -2.4480527208        1.9348614358        0.7380012886
 H         -1.4256865837        2.1657693161        1.0455911723
 H         -3.1376627059        2.2809834505        1.5072245650
 H         -6.8312702124        1.1946817932        0.4717012257
 H         -5.9120521029        0.2941036710       -0.7345738029
 H         -4.8190049595        1.1215945223        1.9897852172
 H         -5.5865089773       -0.4374506442        1.6433168245
 O         -3.8092512279       -1.5569921225        0.5583066390
 C         -2.7272142288       -2.3003924919        0.1218694290
 O         -2.9746494376       -3.5137211984       -0.0407548851
 O         -0.2598398981        0.3565620241       -0.0190012166
 C         -0.3606180656       -2.5459381257       -0.5683280829
 C          0.8452621047       -2.3436000493        0.3132609271
 C          0.8578074859       -3.0437393104        1.5203230465
 C          1.8875520833       -2.8915018165        2.4276643529
 C          2.9394695644       -2.0358809614        2.1536059384
 C          2.9413118237       -1.3333724195        0.9550518195
 C          1.8996663532       -1.4838070291        0.0482906129
 H          1.9347841427       -0.8975380191       -0.8498626967
 N          4.0117947123       -0.4882576539        0.6414807920
 S          3.9354515656        0.7757605827       -0.4343253016
 O          3.7286625084        0.2855916119       -1.7742577955
 O          5.1850888144        1.4779299617       -0.2152563683
 C          2.6066287932        1.8584550773        0.0538414117
 C          2.3818004141        2.0951298649        1.3937292322
 C          1.4195493842        3.0223628873        1.7568713936
 C          0.7097861911        3.7015602950        0.7794405306
 C          0.9459242811        3.4500454330       -0.5621750488
 C          1.9018640267        2.5184551268       -0.9300909711
 H          2.1096633555        2.2855108172       -1.9627564960
 H          0.3856168796        3.9725864561       -1.3213139748
 H         -0.0354154918        4.4280837984        1.0645701812
 H          1.2236535923        3.2101708376        2.8008761855
 H          2.9474643070        1.5567750558        2.1370841314
 H          4.6834598206       -0.3310199574        1.3764971374
 H          3.7501658972       -1.9146288479        2.8557038349
 H          1.8721566309       -3.4423803411        3.3559318724
 H          0.0344431387       -3.7086715854        1.7440227430
 H         -0.7112629392       -3.5729952437       -0.3790244721
 C         -0.2388549595       -2.4488210404       -2.0841177981
 C          0.2530473763       -1.2594321895       -2.8503151046
 C          1.0379704093       -2.5376607976       -2.8629828752
 H          1.0367666397       -3.1249634058       -3.7696642232
 H          1.9724515357       -2.5690598694       -2.3256912748
 H         -0.2870269385       -0.9827408790       -3.7453771323
 H          0.6315041435       -0.4104013026       -2.3042556126
 H         -1.0935002610       -2.9509861816       -2.5338630701
