  62
        -98.93779376
 C         -1.9465988958       -1.6571334308        0.0903431368
 C         -1.8192641023       -0.4801061605       -0.6851519379
 C         -2.9784949449        0.4256794102       -0.6659651891
 C         -4.0693653279        0.0991719785        0.0500211856
 C         -5.3601743465        0.8708232220        0.1297381065
 C         -5.2835247411        2.2627130233        0.7857798759
 C         -5.0894738871        3.4171005162       -0.2048516195
 H         -5.4602564838        3.1072010416       -1.1827439617
 H         -5.7086444423        4.2590982371        0.1114664047
 C         -3.6577425016        3.9421053354       -0.3427585223
 H         -3.4269437633        4.5743025418        0.5176022970
 H         -3.6194467956        4.5729753676       -1.2335561088
 C         -2.5596048981        2.8820019667       -0.4387718445
 H         -2.3681587469        2.4568176712        0.5491389416
 H         -1.6386040964        3.3811961035       -0.7432232666
 C         -2.8603077383        1.7243542520       -1.4101494736
 H         -3.7677408180        1.9240395304       -1.9784155889
 H         -2.0349766933        1.6022886146       -2.1145685429
 H         -4.4943940513        2.2676026653        1.5372012128
 H         -6.2285323400        2.4178345366        1.3088654195
 H         -6.0389138129        0.2409570537        0.7085283901
 H         -5.7734113601        0.9670305102       -0.8769947456
 O         -4.1466516916       -1.0441868660        0.7855631500
 C         -3.0919374881       -1.9385399375        0.8352202141
 O         -3.2915809884       -2.9317209550        1.5639450702
 O         -0.8023353481       -0.2020350157       -1.3710738248
 C         -0.8138565358       -2.6681970929        0.1373641440
 C          0.4303511105       -2.0025709144        0.6713078328
 C          0.3910632423       -1.4424747268        1.9461261240
 C          1.4969083243       -0.8048769831        2.4740295223
 C          2.6652477792       -0.7006365336        1.7383550879
 C          2.7101650683       -1.2453352343        0.4627813211
 C          1.6016623719       -1.9008863845       -0.0599931893
 H          1.6572014887       -2.3190085901       -1.0525065729
 N          3.8817910903       -1.1213666999       -0.3014037349
 S          4.6822911897        0.3472807880       -0.2796556885
 O          5.3524944343        0.4296912618       -1.5590458722
 O          5.5419774371        0.4107313450        0.8770894255
 C          3.4169307355        1.6001792374       -0.1514682054
 C          3.5374199223        2.5862661259        0.8070642287
 C          2.5490626640        3.5521716130        0.9040417646
 C          1.4581513680        3.5116814319        0.0494875538
 C          1.3529592532        2.5160092668       -0.9089021171
 C          2.3416039717        1.5524357573       -1.0154629647
 H          2.2651709282        0.7681742868       -1.7505906807
 H          0.4995268675        2.4627333450       -1.5651580954
 H          0.6843159832        4.2589257758        0.1330177283
 H          2.6285820463        4.3284220019        1.6481213399
 H          4.3955304915        2.5725181770        1.4595831017
 H          3.7992459100       -1.4790890777       -1.2417845096
 H          3.5387777196       -0.2088503899        2.1349273838
 H          1.4514170871       -0.3813565567        3.4658673996
 H         -0.5253372465       -1.5149997826        2.5163770719
 H         -1.1238830532       -3.4367876761        0.8593491130
 C         -0.6359473472       -3.3191072721       -1.2182055107
 C          0.0211070332       -4.6616284827       -1.3246025735
 C         -1.4538031553       -4.5281419787       -1.5543935790
 H         -1.8315852651       -4.6319747918       -2.5605677437
 H         -2.1281429242       -4.8985695549       -0.7959526152
 H          0.6549218526       -4.8625553637       -2.1753236107
 H          0.3514770907       -5.1296796328       -0.4096507750
 H         -0.4655288149       -2.6004402466       -2.0114908772
