  62
        -98.93692928
 C         -1.4357709415       -1.5095916085        0.1486094050
 C         -2.5713889213       -1.0814192562        0.8747526002
 C         -3.3178274069        0.0761124462        0.3419446317
 C         -2.8504296013        0.6914884045       -0.7600473177
 C         -3.4056052759        1.9069705826       -1.4550841485
 C         -3.1105971557        3.2160956649       -0.7049485010
 C         -3.3167124768        3.1546546108        0.8060087035
 H         -2.6929495193        2.3611880831        1.2222287834
 H         -2.9637336980        4.0991886702        1.2288491534
 C         -4.7615286403        2.9526014037        1.2559733301
 H         -4.7750296850        3.0203545115        2.3469689808
 H         -5.3756898761        3.7675427912        0.8663398916
 C         -5.4041668744        1.6232721585        0.8548891980
 H         -5.7041563741        1.6310439701       -0.1895842250
 H         -6.3221525114        1.5159689062        1.4401453408
 C         -4.5533528275        0.3919880380        1.1502308139
 H         -5.1905177527       -0.4976643069        1.0720069369
 H         -4.2316928497        0.4209805099        2.1978047149
 H         -3.7366428888        4.0040886187       -1.1269044215
 H         -2.0668199430        3.4856831011       -0.8829047715
 H         -2.9279375443        1.9518181366       -2.4361711980
 H         -4.4733842870        1.7876568397       -1.6144449209
 O         -1.7204569072        0.2762253025       -1.3984363196
 C         -0.9890348211       -0.8240822525       -0.9829150536
 O          0.0055510515       -1.0677364797       -1.6867765176
 O         -2.9507143075       -1.6363698106        1.9424619933
 C         -0.6466179096       -2.6880938287        0.6907142803
 C          0.8233699030       -2.3499001422        0.6914261664
 C          1.7987990695       -3.1186601112        0.0722685556
 C          3.1230960476       -2.7141723561        0.0842688506
 C          3.5026977943       -1.5391724463        0.7051021827
 C          2.5335536362       -0.7621813517        1.3271586778
 C          1.2126257875       -1.1771048799        1.3283570154
 H          0.4593877734       -0.5660706957        1.8119678454
 N          2.9022876409        0.4524164538        1.9427862114
 S          3.6790358537        1.5748854764        0.9676985919
 O          5.0407044847        1.1510132799        0.7595223559
 O          3.5059061661        2.8421836581        1.6430425637
 C          2.7903042320        1.5663006081       -0.5764355586
 C          3.2735207351        0.8320850142       -1.6396524060
 C          2.5423075864        0.7973260829       -2.8152098647
 C          1.3485295018        1.4934599145       -2.9071136748
 C          0.8791741183        2.2297444283       -1.8314487943
 C          1.6002601384        2.2620758498       -0.6502558743
 H          1.2664264036        2.8242851320        0.2082990836
 H         -0.0544439801        2.7642395391       -1.9075789917
 H          0.7742565293        1.4558725745       -3.8190776576
 H          2.8987860273        0.2184550678       -3.6516570809
 H          4.2082307195        0.3071957191       -1.5301732392
 H          2.1337300837        0.9006143456        2.4214796070
 H          4.5265128886       -1.2015633633        0.7084943507
 H          3.8696883768       -3.3198426424       -0.4064940725
 H          1.5217680446       -4.0228825262       -0.4436800884
 H         -0.9755268371       -2.7784267285        1.7401070796
 C         -0.9638871094       -4.0179851442        0.0240864683
 C         -2.2839998748       -4.2518526519       -0.6458876310
 C         -1.0331366697       -4.1670454380       -1.4652599697
 H         -0.6504821778       -5.0752786968       -1.9075557781
 H         -0.8647294737       -3.2845100719       -2.0617022626
 H         -2.7575503164       -5.2144043160       -0.5224703474
 H         -2.9795660258       -3.4261119300       -0.6858659952
 H         -0.5561139801       -4.8570657032        0.5795436312
