  62
        -98.94798100
 C          0.7704620005        1.2167506177        0.5754245782
 C          1.2128500550        0.7591995521       -0.6891595686
 C          2.1494222950       -0.3727289007       -0.6650893024
 C          2.4870852999       -0.9244078812        0.5144920212
 C          3.5227473857       -1.9958616926        0.6917651356
 C          4.9090803494       -1.3816466656        0.9356267274
 C          5.2958502392       -0.3054564456       -0.0791169528
 H          4.6345181286        0.5553630026        0.0438528382
 H          6.3054890030        0.0283273665        0.1703538827
 C          5.2567675729       -0.7687777248       -1.5422434175
 H          6.1594137273       -0.4153523362       -2.0451441620
 H          5.2678623747       -1.8582268184       -1.5864792034
 C          4.0649809642       -0.2398515904       -2.3426262394
 H          4.2459481948       -0.4489018279       -3.4002693679
 H          4.0021842793        0.8454439841       -2.2303555851
 C          2.7000511130       -0.8407408079       -1.9822721340
 H          1.9822019856       -0.5114017228       -2.7388022265
 H          2.7579723970       -1.9297427256       -2.0110506078
 H          4.9200752389       -0.9325317319        1.9315424581
 H          5.6494530091       -2.1835247384        0.9170658132
 H          3.2514464600       -2.6052188059        1.5545024763
 H          3.5492135518       -2.6221840957       -0.1967113782
 O          1.9663737876       -0.5159500380        1.7006498062
 C          1.1116556853        0.5720433977        1.7629893349
 O          0.7283058283        0.8617117868        2.9159435635
 H         -1.5982223349        0.2478089419        0.4707196385
 C         -2.0068133308        1.0394261414       -0.1408981184
 C         -1.3616132457        2.2687619711       -0.1737219439
 C         -1.9069204948        3.2854736069       -0.9474217818
 C         -3.0618321307        3.0648622271       -1.6774202335
 C         -3.6973469332        1.8377610764       -1.6469190571
 C         -3.1617985027        0.8147426553       -0.8713628226
 N         -3.7577947987       -0.4512826649       -0.8500434034
 S         -3.5330687816       -1.5161591013        0.4072790047
 O         -4.5333707147       -2.5395275272        0.1846774971
 O         -3.5891510769       -0.8594987449        1.6931232500
 C         -1.9253704832       -2.2277963147        0.1324826974
 C         -1.5293002024       -2.5183348226       -1.1574953828
 C         -0.3115616410       -3.1478113578       -1.3567574593
 C          0.4787284747       -3.4852063499       -0.2693906505
 C          0.0703976178       -3.1806770782        1.0193478328
 C         -1.1421632398       -2.5434278243        1.2245499405
 H         -1.4895056455       -2.2759590051        2.2107419889
 H          0.6880124392       -3.4330849953        1.8664643014
 H          1.4172471991       -3.9926828853       -0.4240383125
 H          0.0147916944       -3.3765676675       -2.3584006460
 H         -2.1702802280       -2.2477353833       -1.9798925797
 H         -4.6564670799       -0.5339194483       -1.2997885126
 H         -4.5955828204        1.6657797704       -2.2197167323
 H         -3.4741019605        3.8614323807       -2.2780425083
 H         -1.4266611919        4.2495054028       -0.9824784057
 C         -0.1172216977        2.4438541470        0.6615260108
 H         -0.4270545632        2.5248663507        1.7146999639
 C          0.6835504485        3.6769037803        0.2908133531
 C          0.3874387263        4.9988806131        0.9307689046
 C          1.6327760484        4.2507131891        1.2978480246
 H          2.5842510988        4.6290351355        0.9551780515
 H          1.6768909547        3.7699811331        2.2647516279
 H          0.4874667747        5.8946948836        0.3364636580
 H         -0.4114130327        5.0361444360        1.6561367551
 H          0.9999485684        3.6678092360       -0.7461734076
 O          0.8599337315        1.2801191654       -1.7787373038
