  62
        -98.93982595
 C          1.8020026267        0.0024932588       -0.2245422669
 C          2.7846646203       -0.6627269273        0.5507762989
 C          4.1032055256       -0.0124102906        0.5997479909
 C          4.3018254968        1.1626248258       -0.0219539714
 C          5.5797341692        1.9568227448       -0.0338761664
 C          6.5852386944        1.5032620397       -1.1011450577
 C          7.2825204027        0.1727524261       -0.8143066904
 H          8.1086685947        0.0854634341       -1.5228250398
 H          7.7137864541        0.1988814523        0.1868726991
 C          6.3787616523       -1.0599766744       -0.9560380969
 H          5.4855065450       -0.7923972306       -1.5253905303
 H          6.9020793661       -1.8310131846       -1.5261094755
 C          5.9509291186       -1.6884503228        0.3702558712
 H          6.8287274943       -2.0780389928        0.8904885353
 H          5.2875532105       -2.5292592676        0.1526133980
 C          5.2090793703       -0.7314287810        1.3124333283
 H          4.7588949430       -1.3207104087        2.1148203570
 H          5.9069116038       -0.0182160259        1.7502963393
 H          6.0705331799        1.4458075034       -2.0631759246
 H          7.3494527267        2.2800309313       -1.1797831566
 H          5.2996705449        2.9917905367       -0.2419945110
 H          6.0476751578        1.9147427522        0.9500585348
 O          3.3194942514        1.7922939741       -0.7213773232
 C          2.0659872686        1.2202091713       -0.8576796928
 O          1.2783364361        1.8838803924       -1.5631549021
 O          2.5956296381       -1.7364977122        1.1754809256
 C          0.3949272782       -0.5402523332       -0.4233385700
 C         -0.5024637097       -0.0780762876        0.6954110808
 C         -0.1889862556       -0.3507812889        2.0245834830
 C         -1.0097172797        0.0963473043        3.0426314385
 C         -2.1581675207        0.8147076510        2.7582886295
 C         -2.4751199834        1.1000897923        1.4353954738
 C         -1.6493555549        0.6494883208        0.4128993382
 H         -1.8895664818        0.9055861579       -0.6081635022
 N         -3.6212233022        1.8418581449        1.1271639494
 S         -4.4519984538        1.6228044077       -0.2982972361
 O         -3.7576161052        2.2471101550       -1.3961662617
 O         -5.7759395856        2.1366046589       -0.0170599369
 C         -4.5401066631       -0.1408720275       -0.5578648369
 C         -4.2603885183       -0.6490582872       -1.8099863014
 C         -4.3651817951       -2.0153375185       -2.0202812967
 C         -4.7401449379       -2.8472280440       -0.9767530767
 C         -5.0164057138       -2.3218563999        0.2760884712
 C         -4.9215190837       -0.9561828515        0.4896310003
 H         -5.1401054408       -0.5214119631        1.4511044443
 H         -5.3045049506       -2.9717217639        1.0863829286
 H         -4.8131022947       -3.9104323536       -1.1408895968
 H         -4.1475802250       -2.4238581629       -2.9941417416
 H         -3.9582846561        0.0320214389       -2.5899823511
 H         -4.2265649148        2.0587876480        1.9040660897
 H         -2.7976461999        1.1663188865        3.5534492162
 H         -0.7555389340       -0.1194296746        4.0693396634
 H          0.7053985131       -0.9130253821        2.2450099379
 H          0.0336615330       -0.0660645828       -1.3498854912
 C          0.3673054439       -2.0480299698       -0.6410931896
 C         -0.3182179934       -3.0107571771        0.2775922904
 C         -0.9117521629       -2.7086590529       -1.0628071570
 H         -0.8756027464       -3.4642837418       -1.8325660784
 H         -1.7976891443       -2.0915233744       -1.0886620328
 H          0.1547231626       -3.9680516952        0.4344731312
 H         -0.8143407594       -2.6213362007        1.1518790573
 H          1.2756491251       -2.4049398043       -1.1149830206
