  62
        -98.94037763
 C         -1.9563033899       -1.3245149114       -0.5322778707
 C         -0.8861478999       -1.4375946405       -1.4538169108
 C          0.1851541707       -2.3950312800       -1.1366576013
 C          0.0996859112       -3.1009203705        0.0038839985
 C          1.1004100518       -4.0762767601        0.5606234380
 C          2.0782384015       -3.3663197599        1.5137095182
 C          3.3269739111       -2.8003925390        0.8405943183
 H          3.9594824215       -3.6218511385        0.4961271679
 H          3.8823792309       -2.2485431489        1.6027111584
 C          3.0383553005       -1.8595901287       -0.3313700713
 H          3.9087494301       -1.2154326882       -0.4741348212
 H          2.2023504501       -1.2125979793       -0.0604505810
 C          2.7404050707       -2.5991411684       -1.6439981516
 H          3.0084003813       -3.6493439783       -1.5287073520
 H          3.3796467105       -2.2003769377       -2.4342045615
 C          1.2951379506       -2.4897168090       -2.1483949714
 H          1.0862164111       -3.3370921489       -2.8106548717
 H          1.1904484201       -1.5863567089       -2.7570326611
 H          2.3937756919       -4.0716546300        2.2857328779
 H          1.5402437611       -2.5526872204        2.0089432685
 H          1.6307187220       -4.5860373295       -0.2388585222
 H          0.5302610422       -4.8130358306        1.1307055178
 O         -0.9486847388       -2.9750591614        0.8588944986
 C         -1.9780311293       -2.0670425719        0.6486696790
 O         -2.8236127293       -2.0572262327        1.5620823691
 O         -0.8279635704       -0.7440675401       -2.5072519106
 C         -2.9812308105       -0.2475968119       -0.8539372402
 C         -2.3578083312        1.1013603684       -0.5859381598
 C         -2.5308941019        2.1757987886       -1.4503249093
 C         -1.8973059026        3.3822031989       -1.2075390890
 C         -1.0448226225        3.5257532089       -0.1269392890
 C         -0.8588582119        2.4538985087        0.7378756206
 C         -1.5457713712        1.2683544984        0.5263497202
 H         -1.3988119707        0.4480455882        1.2127271999
 N          0.0511073482        2.5167056888        1.8139121605
 S          1.3295139888        1.4284770396        1.7605142800
 O          0.8321734496        0.0786412193        1.7929532296
 O          2.1980483287        1.8208161997        2.8491603301
 C          2.1384359985        1.7655047006        0.2063214701
 C          1.5760192086        1.2960355207       -0.9638756001
 C          2.1845608483        1.6048548515       -2.1700311400
 C          3.3379302379        2.3732027221       -2.1877093598
 C          3.8908173878        2.8378964920       -1.0036629697
 C          3.2846283180        2.5367013212        0.2051898202
 H          3.6799716479        2.8721762711        1.1503522503
 H          4.7894188374        3.4333842825       -1.0189220496
 H          3.8076824477        2.6086640327       -3.1296292598
 H          1.7425679485        1.2375601316       -3.0826272201
 H          0.6813957590        0.6947972202       -0.9306198702
 H          0.4131391577        3.4444824290        1.9888038508
 H         -0.5183517430        4.4530606992        0.0411176313
 H         -2.0437906131        4.2105318190       -1.8834552187
 H         -3.1471346419        2.0544139786       -2.3287451193
 H         -3.1518194306       -0.3139147316       -1.9414064002
 C         -4.3255952303       -0.4234039329       -0.1697727701
 C         -4.7285370807        0.3637210964        1.0372051202
 C         -5.3791983409        0.6385061466       -0.2835648496
 H         -6.4036325508        0.3308038760       -0.4275537697
 H         -5.1163612515        1.5568923369       -0.7856268493
 H         -5.2879277503       -0.1487405741        1.8045291701
 H         -4.0287562710        1.0881543467        1.4255504804
 H         -4.6652027198       -1.4527491031       -0.2040173805
