  62
        -98.94369257
 C         -1.7898705281       -0.9273607179        0.7817511434
 C         -1.9750144236       -0.3669154444       -0.5053128150
 C         -3.3668581804       -0.2868175924       -0.9663902199
 C         -4.3586083002       -0.7609793500       -0.1907265369
 C         -5.8237894653       -0.7679895690       -0.5334900338
 C         -6.5436628421        0.5503218178       -0.2175813609
 C         -6.2102562801        1.7139802910       -1.1521880201
 H         -6.3471832512        1.3979505665       -2.1867776828
 H         -6.9387532693        2.5026919647       -0.9536188331
 C         -4.7984183832        2.2888309765       -0.9697876475
 H         -4.3933051577        1.9632683654       -0.0088218740
 H         -4.8501376033        3.3795732694       -0.9406240601
 C         -3.8118606469        1.9111265164       -2.0748633913
 H         -4.1366556712        2.3497685150       -3.0209775599
 H         -2.8366206659        2.3352495672       -1.8221893835
 C         -3.6334472769        0.3999723186       -2.2715397551
 H         -4.5131525342       -0.0239971017       -2.7550578055
 H         -2.7653100702        0.2383020723       -2.9147797031
 H         -6.3165867261        0.8339316161        0.8127974750
 H         -7.6173654907        0.3584502465       -0.2798117413
 H         -5.9527338823       -1.0107389730       -1.5885183976
 H         -6.2793273531       -1.5603991809        0.0642746806
 O         -4.1330831633       -1.3219315595        1.0279320226
 C         -2.8528320243       -1.3934713681        1.5539992149
 O         -2.7933491632       -1.8861516738        2.6994977367
 H          2.1041695391       -0.2205016370        0.5146202827
 C          1.5178557655        0.5881254715        0.9151930954
 C          0.2410600042        0.3494147169        1.3962118692
 C         -0.4812405216        1.4148578001        1.9283257650
 C          0.0561037859        2.6865184788        1.9582077461
 C          1.3274734466        2.9231917057        1.4648316170
 C          2.0608507299        1.8661913984        0.9402672743
 N          3.3323653255        2.0834669003        0.3990490887
 S          4.5075771751        0.9028292844        0.3812510672
 O          4.5327472407        0.1510876908        1.6145691580
 O          5.7244947149        1.6160843532        0.0555562618
 C          4.0731323811       -0.1630759484       -0.9774611040
 C          4.3307616640       -1.5153282673       -0.8670942224
 C          4.0144974478       -2.3483649498       -1.9284320570
 C          3.4503496754       -1.8162749805       -3.0774320104
 C          3.2036600633       -0.4554880708       -3.1748095346
 C          3.5197425968        0.3830847553       -2.1180586061
 H          3.3308031944        1.4426776010       -2.1602264239
 H          2.7595299169       -0.0459599391       -4.0677445331
 H          3.1987131704       -2.4665126835       -3.9004877788
 H          4.2049988137       -3.4074184199       -1.8546752318
 H          4.7603596992       -1.8870554984        0.0499301893
 H          3.7049133918        3.0149980078        0.5000340661
 H          1.7455628637        3.9181565332        1.4806322011
 H         -0.5182814405        3.5031714478        2.3695246422
 H         -1.4759127811        1.2308835265        2.3124038516
 C         -0.3916841092       -1.0205928277        1.3648930150
 H         -0.5129447092       -1.3655490462        2.4024501925
 C          0.4207281385       -2.0460042992        0.6013898459
 C          1.5326495096       -2.7868308431        1.2790747562
 C          0.2571118370       -3.4961175650        0.9394238964
 H          0.2658462341       -4.2170282681        0.1360369905
 H         -0.4229221305       -3.7440180170        1.7416717257
 H          2.4174797960       -3.0208039625        0.7069337214
 H          1.7299734676       -2.5563503958        2.3153253142
 H          0.5421230204       -1.7862058890       -0.4443105237
 O         -1.0334182935        0.0441656181       -1.2304990832
