  62
        -98.94106298
 C         -2.0850555161       -0.7844879353       -0.4369160208
 C         -3.2013755004       -1.2722042320        0.2912323392
 C         -4.4692305080       -0.5641868497        0.0870703008
 C         -4.5164652078        0.4888489107       -0.7483272712
 C         -5.7373019143        1.3045244140       -1.0769829488
 C         -6.0392811129        2.4123737045       -0.0584936342
 C         -6.5838030101        1.9295581403        1.2865615797
 H         -6.9539334496        2.8097017725        1.8161527065
 H         -7.4356476577        1.2701995744        1.1169030163
 C         -5.5489860542        1.2205229789        2.1714665545
 H         -5.6193391346        1.6035620569        3.1920657204
 H         -4.5434358550        1.4521658350        1.8122774633
 C         -5.7119096896       -0.2977629301        2.2452425674
 H         -6.6613210414       -0.5413727941        2.7271504034
 H         -4.9065932159       -0.6992170760        2.8655463910
 C         -5.6588578447       -1.0055545244        0.8850107399
 H         -5.5624387032       -2.0796970797        1.0613990393
 H         -6.5786179998       -0.8232630222        0.3295685280
 H         -5.1290761172        2.9944618654        0.1041593179
 H         -6.7810677658        3.0756882340       -0.5094310709
 H         -5.5481536757        1.7709640488       -2.0462990275
 H         -6.6030131123        0.6480633072       -1.1701000705
 O         -3.4241566502        0.9336553447       -1.4217642990
 C         -2.1788260949        0.3320542435       -1.2696097062
 O         -1.2765918937        0.8832715195       -1.9263671284
 O         -3.1388184321       -2.2540507338        1.0774682633
 C         -0.7537254792       -1.4813601102       -0.2153872825
 C          0.3127014876       -0.4627030297        0.0941192586
 C          0.2597272462        0.2144482277        1.3094290400
 C          1.1990049273        1.1770888888        1.6257815040
 C          2.2161439887        1.4818868010        0.7385474618
 C          2.2807719808        0.8086763249       -0.4738011566
 C          1.3397344662       -0.1641197492       -0.7867155276
 H          1.3882414691       -0.6607621816       -1.7430926810
 N          3.3168517983        1.1085708627       -1.3722646637
 S          4.8674491542        1.2573485491       -0.7677980689
 O          5.0519131590        2.5710304373       -0.2027604300
 O          5.7399954859        0.9180185859       -1.8701624479
 C          4.9776927092        0.0268762526        0.5206401610
 C          5.2134055430        0.4114650158        1.8245398245
 C          5.2554403043       -0.5591096092        2.8128925830
 C          5.0574797496       -1.8903256128        2.4820864763
 C          4.8258855617       -2.2617549885        1.1662777915
 C          4.7849074319       -1.2960236090        0.1742232488
 H          4.6132729292       -1.5522254097       -0.8588743672
 H          4.6736775443       -3.2983184529        0.9115395616
 H          5.0841193580       -2.6440611916        3.2531357227
 H          5.4375629251       -0.2733413617        3.8363286290
 H          5.3582432229        1.4578751796        2.0385995656
 H          3.2914706667        0.5769677147       -2.2291489384
 H          2.9478227810        2.2422344262        0.9588447067
 H          1.1390777059        1.6988567018        2.5688327441
 H         -0.5394739214       -0.0170777331        2.0003538488
 H         -0.9170080765       -2.0862300488        0.6918033294
 C         -0.3574901766       -2.4571103836       -1.3128777309
 C         -1.3998288981       -3.2349116208       -2.0576679246
 C         -0.5936849604       -2.1914483637       -2.7685235836
 H          0.1547145570       -2.5195750280       -3.4758588126
 H         -1.0723467537       -1.2643426138       -3.0417997342
 H         -1.2085413096       -4.2742877858       -2.2781746906
 H         -2.4351113244       -3.0177364390       -1.8384543920
 H          0.5524639038       -2.9936390913       -1.0607407903
