  62
        -98.94059625
 C          2.3383794447       -0.1875775385       -0.2798427591
 C          3.5174025337       -0.5649399402       -0.9661538065
 C          4.7212831085        0.2069704122       -0.6396781956
 C          4.6445701035        1.2204724318        0.2421638468
 C          5.7786003910        2.1169933772        0.6599048585
 C          6.6538536351        1.5349794894        1.7784054631
 C          7.5702853344        0.3858188258        1.3564497692
 H          8.1484321935        0.6859509797        0.4820298078
 H          8.2758756887        0.2226533308        2.1734777387
 C          6.8399199721       -0.9326622294        1.0653419406
 H          5.8375853121       -0.8980380119        1.4986361713
 H          7.3687633409       -1.7566115479        1.5497595372
 C          6.7247177040       -1.2798935659       -0.4189627216
 H          6.1588206212       -2.2105635780       -0.5098143442
 H          7.7205419286       -1.4492335460       -0.8344283722
 C          6.0180951566       -0.2119706094       -1.2640967941
 H          6.6700729429        0.6499476208       -1.4035465289
 H          5.7916320803       -0.6432150290       -2.2422735251
 H          7.2771529148        2.3470148755        2.1598587828
 H          6.0047841548        1.2037188020        2.5922725151
 H          6.3994153468        2.3506974334       -0.2053672746
 H          5.3248788081        3.0414427312        1.0233787445
 O          3.4844484471        1.5694574562        0.8602134412
 C          2.3095525715        0.8672902190        0.6320982090
 O          1.3322506668        1.2791671626        1.2855440644
 O          3.5590837114       -1.4955010860       -1.8152672596
 C          1.0576727567       -0.9568023467       -0.5452981826
 C         -0.0207964483       -0.0244122495       -1.0379497785
 C          0.2551870533        0.8047712806       -2.1231332232
 C         -0.7022532910        1.6713901049       -2.6116484440
 C         -1.9610864535        1.7212747301       -2.0383966219
 C         -2.2467161160        0.8995406698       -0.9552986047
 C         -1.2799105563        0.0323015316       -0.4637590778
 H         -1.5313695867       -0.5930132073        0.3761383840
 N         -3.5052613798        0.9473015314       -0.3347365575
 S         -4.1544117940       -0.4764326864        0.2967607249
 O         -3.6130515051       -0.7019626180        1.6131349453
 O         -3.9982030544       -1.5557309573       -0.6524332932
 C         -5.8718700132       -0.0122348200        0.4263040992
 C         -6.2762443918        0.7347681867        1.5167204193
 C         -7.6034218207        1.1229891617        1.6076375036
 C         -8.4991277504        0.7608679472        0.6123079530
 C         -8.0792296526        0.0093627484       -0.4748760226
 C         -6.7529207522       -0.3813049675       -0.5726387610
 H         -6.3832186680       -0.9731913297       -1.3944395548
 H         -8.7786885742       -0.2736741246       -1.2448767543
 H         -9.5316944581        1.0634771912        0.6864677305
 H         -7.9340947559        1.7041297035        2.4533100680
 H         -5.5466215222        0.9843045477        2.2695287536
 H         -4.1889053987        1.4662502615       -0.8686254633
 H         -2.7109078365        2.3974013873       -2.4202109096
 H         -0.4710422877        2.3093551860       -3.4515598874
 H          1.2368183277        0.7600532654       -2.5755848936
 H          1.2998327697       -1.6569708453       -1.3594900761
 C          0.6573497796       -1.7561525633        0.6763760040
 C         -0.1774049432       -2.9916371741        0.5272869273
 C          1.2689418479       -3.1048693149        0.9025477945
 H          1.5197339495       -3.3950579682        1.9118066705
 H          1.9633806060       -3.4649610727        0.1574916012
 H         -0.9280053680       -3.1975578105        1.2761329276
 H         -0.4714111095       -3.2776838966       -0.4715717660
 H          0.4879712753       -1.1312247454        1.5470516347
