  62
        -98.94192520
 C         -1.1960667848       -1.5608011373        0.5113266797
 C         -2.1379661113       -1.1880111472       -0.4762535297
 C         -3.1647862268       -0.2170386802       -0.0622361097
 C         -3.1624881431        0.2553322881        1.1958000287
 C         -4.1279545388        1.2217681034        1.8346181213
 C         -4.5226318467        2.4650702738        1.0252922055
 C         -3.4349247526        3.0116770979        0.0884295415
 H         -2.4660206029        2.5602542049        0.3149372207
 H         -3.3303450322        4.0856927506        0.2567433536
 C         -3.7625730383        2.8024806440       -1.3921908693
 H         -3.1681208146        3.5052727575       -1.9812775692
 H         -4.8157188786        3.0434715710       -1.5560153089
 C         -3.4772919250        1.4040711561       -1.9373916228
 H         -2.3960791422        1.2404593461       -1.9742301734
 H         -3.8433673618        1.3621973884       -2.9663224189
 C         -4.0993987655        0.2436372347       -1.1426985721
 H         -4.2187658931       -0.6041090343       -1.8228313668
 H         -5.0752902332        0.5143429048       -0.7469180390
 H         -4.7984390585        3.2357493998        1.7472280494
 H         -5.4155580649        2.2499061853        0.4394376579
 H         -5.0330409564        0.6707712626        2.1069468805
 H         -3.6449885609        1.5310880001        2.7646634816
 O         -2.2417922747       -0.1407836539        2.1194091823
 C         -1.2203496620       -1.0159740030        1.7927248792
 O         -0.4083226569       -1.2286009839        2.7179285111
 H          0.4198106553        0.1254507096       -0.1889847303
 C          0.9529313927       -0.4615672746       -0.9197110084
 C          0.8074532972       -1.8409542346       -0.9259786689
 C          1.4805316747       -2.5698430532       -1.8990200240
 C          2.2617754657       -1.9217863211       -2.8405563527
 C          2.4056837877       -0.5457080577       -2.8259181966
 C          1.7391817155        0.1913798643       -1.8540257209
 N          1.8382546618        1.5892231060       -1.7944047709
 S          1.8084433555        2.3623192687       -0.3121721359
 O          0.4792136152        2.3468009923        0.2449395402
 O          2.3601544197        3.6720295099       -0.5873859917
 C          2.9495420431        1.4348475034        0.6982258274
 C          2.5034685243        0.6129136014        1.7120972250
 C          3.4301422329       -0.1309572396        2.4270216252
 C          4.7782760717       -0.0405549868        2.1203641844
 C          5.2128061872        0.7982609788        1.1046057505
 C          4.2918838218        1.5399240192        0.3845563774
 H          4.5900311803        2.2118827497       -0.4037622790
 H          6.2626862498        0.8725466343        0.8716141839
 H          5.4927760770       -0.6246877086        2.6785134307
 H          3.0801286791       -0.7793306269        3.2146875281
 H          1.4501046964        0.5512806386        1.9380807233
 H          2.5043141621        2.0035808747       -2.4289448475
 H          3.0148231762       -0.0451410449       -3.5625738224
 H          2.7718586282       -2.4986569866       -3.5968954155
 H          1.3858033068       -3.6431457401       -1.9250534932
 C         -0.0430603879       -2.4771927497        0.1497282633
 H          0.5748485919       -2.5605112367        1.0571110234
 C         -0.5455617851       -3.8563639790       -0.2255087488
 C          0.2692282142       -5.0731990182        0.0923128221
 C         -0.9817060825       -4.7864421647        0.8653716303
 H         -1.8494497528       -5.4066279926        0.6984759652
 H         -0.8872333265       -4.4339435643        1.8825225669
 H          1.2146590612       -4.9273658645        0.5927250325
 H          0.2592145530       -5.8966946779       -0.6057689695
 H         -1.1264101379       -3.8504396956       -1.1402985631
 O         -2.1250337889       -1.6403571818       -1.6506574527
