  62
        -98.94854942
 C         -1.5707138602       -1.0957480719        0.8498036101
 C         -2.5440672167       -0.5315813410       -0.0096043967
 C         -2.9696426480        0.8345142620        0.3166517142
 C         -2.4153660544        1.4797316807        1.3581491177
 C         -2.7221806600        2.8860042010        1.7951209863
 C         -1.9483730601        3.9506981641        1.0049603461
 C         -2.4495661530        4.1949462158       -0.4191776573
 H         -3.5293712847        4.3501901243       -0.4055800714
 H         -1.9894159462        5.1232050589       -0.7641844306
 C         -2.0968865367        3.0776686610       -1.4113831176
 H         -1.7228186990        3.5216004511       -2.3377876013
 H         -1.2822693626        2.4726852450       -1.0050472956
 C         -3.2658534743        2.1666321787       -1.7877867311
 H         -4.0118698319        2.7401435322       -2.3437360853
 H         -2.8856056537        1.3793888754       -2.4441716703
 C         -3.9586713387        1.4943321253       -0.5962197539
 H         -4.5551511011        2.2230998859       -0.0476808780
 H         -4.6221028559        0.7167388369       -0.9836406737
 H         -0.8949281687        3.6609804184        0.9667675416
 H         -2.0198565599        4.8889071817        1.5607528669
 H         -3.7932296725        3.0745954098        1.7145450984
 H         -2.4333323553        2.9574267575        2.8460133624
 O         -1.4883029465        0.9016439404        2.1651620564
 C         -1.0190919753       -0.3758785951        1.9087661565
 O         -0.1253979293       -0.7581939980        2.6935649798
 H          0.9626608943       -0.7541845800        0.0579634345
 C          0.7327316209       -1.3106707228       -0.8370054543
 C         -0.2354253633       -2.3066855872       -0.7778839311
 C         -0.5143666293       -3.0336937685       -1.9255549202
 C          0.1318666457       -2.7283356683       -3.1125430438
 C          1.0417506837       -1.6900932987       -3.1826354622
 C          1.3436697839       -0.9695344121       -2.0300433725
 N          2.2655006962        0.0832452287       -2.0593133068
 S          2.2696844981        1.3192020901       -0.9324000522
 O          0.9518415878        1.6197368129       -0.4267961961
 O          2.9503625153        2.4029389186       -1.6114213349
 C          3.3403799706        0.6944578998        0.3449859725
 C          2.8710617802        0.4533921449        1.6192781491
 C          3.7482361863       -0.0414924630        2.5730432253
 C          5.0715490976       -0.2811222964        2.2396093061
 C          5.5299701729       -0.0282725718        0.9547442092
 C          4.6582819780        0.4629733265       -0.0019914567
 H          4.9734908300        0.6817781077       -1.0085568638
 H          6.5604790862       -0.2141818446        0.6983696294
 H          5.7479757944       -0.6663383147        2.9862670436
 H          3.3810886324       -0.2407611941        3.5672433529
 H          1.8337326313        0.6357436543        1.8568809159
 H          2.5542373409        0.3867447112       -2.9765479684
 H          1.5123460450       -1.4311675413       -4.1188017552
 H         -0.0975001432       -3.2925378939       -4.0039704117
 H         -1.2508422850       -3.8196907613       -1.8995958756
 C         -0.9686370064       -2.4573474782        0.5342193944
 H         -0.2306644671       -2.6573170981        1.3240590865
 C         -2.0122650832       -3.5511638214        0.5438308222
 C         -1.5968276718       -4.9742081639        0.7626283327
 C         -2.3359573464       -4.2355460489        1.8365723542
 H         -3.3632949362       -4.5016204831        2.0349179923
 H         -1.7891434494       -3.9239720101        2.7147693158
 H         -2.1177787171       -5.7521043830        0.2254398856
 H         -0.5460603991       -5.1696605681        0.9140416636
 H         -2.8327448103       -3.3541284997       -0.1354165998
 O         -3.0379178538       -1.1309991273       -1.0006224772
