  62
        -98.93513270
 C         -2.4961821991       -1.2391180403        0.2998047104
 C         -3.1111120491       -0.3131632704        1.1817881805
 C         -4.1114778192        0.5830051596        0.5952277707
 C         -4.3815417394        0.5065813396       -0.7204206493
 C         -5.4025997095        1.3232886196       -1.4651526091
 C         -4.9030564797        2.7067672796       -1.9027562791
 C         -4.7435308696        3.7269643996       -0.7749724091
 H         -5.6660866496        3.7745348295       -0.1955825190
 H         -4.6013964398        4.7030701496       -1.2429499891
 C         -3.5587661195        3.4532652997        0.1621635007
 H         -3.0053102195        4.3800417897        0.3312267007
 H         -2.8674990595        2.7550445097       -0.3167210194
 C         -3.9492879693        2.9022582696        1.5337846508
 H         -4.5279888593        3.6519631195        2.0780256909
 H         -3.0328341892        2.7100640996        2.0980191206
 C         -4.7594686492        1.6002254395        1.4855222108
 H         -5.7768421393        1.8035002495        1.1518390609
 H         -4.7977238390        1.1833485195        2.4949389008
 H         -5.6255089598        3.1014151296       -2.6208728390
 H         -3.9493698197        2.5866590797       -2.4221576293
 H         -6.2972766995        1.4360087995       -0.8520184290
 H         -5.6625037196        0.7531222396       -2.3595828091
 O         -3.7487370994       -0.3691120403       -1.5412392894
 C         -2.7824143893       -1.2509292602       -1.0669223695
 O         -2.2854997394       -1.9621662202       -1.9558845596
 O         -2.8415146490       -0.2453215104        2.4126313305
 C         -1.4713204290       -2.1900092302        0.9073817503
 C         -0.1068495991       -1.9111335801        0.3277034201
 C          0.4141099608       -2.4801537300       -0.8287957700
 C          1.6643264907       -2.1084439099       -1.2934494901
 C          2.4244206507       -1.1634817799       -0.6295320302
 C          1.9071994008       -0.5671642300        0.5124217899
 C          0.6588527909       -0.9490440101        0.9804432601
 H          0.2587532410       -0.4747098401        1.8680310601
 N          2.6634752508        0.3968280901        1.2007219199
 S          3.3964888007        1.6226038901        0.3196603598
 O          3.5611994007        2.7119343601        1.2574237598
 O          2.6641245305        1.9201814201       -0.8897912101
 C          4.9981811407        0.9525095803       -0.0765744204
 C          5.7850243908        0.4932252603        0.9615422695
 C          7.0351861108       -0.0298993196        0.6728969093
 C          7.4762011807       -0.0825300595       -0.6410920407
 C          6.6762421405        0.3865888504       -1.6716408406
 C          5.4241380105        0.9107453503       -1.3896005005
 H          4.7656212704        1.2815941003       -2.1591592104
 H          7.0206563004        0.3454082105       -2.6925070207
 H          8.4490320307       -0.4916193895       -0.8635565409
 H          7.6601142609       -0.3954251396        1.4716833892
 H          5.4066242209        0.5544958102        1.9681389995
 H          2.2021040309        0.7677560600        2.0189030199
 H          3.3959455507       -0.8736688898       -0.9945704803
 H          2.0502940406       -2.5636336299       -2.1930112302
 H         -0.1659864492       -3.1861992601       -1.3949377899
 H         -1.4243911389       -1.8687844103        1.9599167203
 C         -1.9746646089       -3.6269692003        0.9657886203
 C         -2.1579293390       -4.5540936002       -0.1968143497
 C         -1.0846544688       -4.8237629102        0.8135553601
 H         -1.2206658687       -5.6506127502        1.4945959201
 H         -0.0590239089       -4.6529584101        0.5265675000
 H         -3.0359936489       -5.1848410403       -0.1887196896
 H         -1.8981556791       -4.2062935202       -1.1820816197
 H         -2.7450473688       -3.7064011503        1.7294839804
