  62
        -98.93209302
 C          2.4001286198        0.8529040466        0.7371873380
 C          3.4529074883        0.9079645730       -0.2057378686
 C          4.6033522611        0.0143177446        0.0373804375
 C          4.5902329914       -0.8205169855        1.0922003687
 C          5.6207504814       -1.8054936020        1.6043024568
 C          6.8173031902       -2.2042186097        0.7447519793
 C          6.4681378895       -3.0336447434       -0.4909197941
 H          7.3751062417       -3.1600045759       -1.0861191320
 H          6.1450273834       -4.0248751209       -0.1628667092
 C          5.3658125110       -2.4628469903       -1.3796703077
 H          5.2062596885       -3.1617559252       -2.2053538374
 H          4.4303755134       -2.4116724465       -0.8184950598
 C          5.6572422034       -1.0907691339       -1.9834829442
 H          4.8642633219       -0.8733421501       -2.7043162030
 H          6.6037893182       -1.1213090304       -2.5268211004
 C          5.7044379317        0.0755545792       -0.9823550618
 H          6.6748690805        0.1408314683       -0.4966387798
 H          5.5538883609        1.0038416452       -1.5410328211
 H          7.3900736862       -1.3246570584        0.4659654293
 H          7.4657051452       -2.8152146757        1.3786740080
 H          5.9952143575       -1.3793792602        2.5416738217
 H          5.0613626636       -2.7056653747        1.8785143304
 O          3.5378396507       -0.8566663020        1.9621159110
 C          2.4362641627       -0.0385803801        1.8119125796
 O          1.5640681673       -0.1910930967        2.6915026576
 O          3.4671396336        1.6688807305       -1.2086802413
 C          1.1545554245        1.7215414932        0.6519434615
 C          0.1720722027        1.1427065781       -0.3389816816
 C          0.4037993758        1.1841977201       -1.7095221390
 C         -0.5166103465        0.6452258106       -2.5901731673
 C         -1.6806832259        0.0566862645       -2.1283862976
 C         -1.9198387559        0.0063689001       -0.7617321694
 C         -0.9968612675        0.5530819299        0.1211034134
 H         -1.1784847907        0.5028754043        1.1867980608
 N         -3.0913842415       -0.6088730248       -0.2818453414
 S         -4.5344898995       -0.2173898017       -1.0712903971
 O         -4.6481724186       -1.0416843547       -2.2482652696
 O         -4.6053319661        1.2098287516       -1.2911698381
 C         -5.7415124174       -0.7206636150        0.1387256801
 C         -6.1310763196       -2.0457600639        0.1834312348
 C         -7.0534338638       -2.4399650299        1.1396251599
 C         -7.5670035571       -1.5087379464        2.0300862498
 C         -7.1669708041       -0.1821323734        1.9721538055
 C         -6.2441083656        0.2187861825        1.0190208803
 H         -5.9126828327        1.2411708810        0.9309389150
 H         -7.5701610935        0.5400081605        2.6638027860
 H         -8.2859521342       -1.8178392471        2.7723085401
 H         -7.3691736949       -3.4696733357        1.1867012367
 H         -5.7126350973       -2.7316603152       -0.5344860173
 H         -3.1872649980       -0.5116489536        0.7199569991
 H         -2.4084885700       -0.3585126992       -2.8070642637
 H         -0.3261480106        0.6833022570       -3.6524801438
 H          1.3184447927        1.6236996152       -2.0756415358
 H          0.6926603079        1.6653654951        1.6469806706
 C          1.4577099579        3.1761092780        0.3511741967
 C          0.4185777564        4.2087808275        0.6637885164
 C          1.6687825033        4.1296201334        1.4866057539
 H          2.4109406750        4.9057403244        1.3755428721
 H          1.5950238181        3.7371257468        2.4906369328
 H          0.2987770521        5.0401591036       -0.0137053881
 H         -0.5050934077        3.8697514186        1.1086349501
 H          2.0606888832        3.3196249903       -0.5348465940
