  62
        -98.94523826
 C          2.1911798171        1.1523019573        0.1422139736
 C          1.7147007965        0.1705248879       -0.7618154882
 C          2.4429434838       -1.1057652531       -0.7487476114
 C          3.5224503029       -1.2570533212        0.0399340892
 C          4.3933191492       -2.4816398422        0.1243788904
 C          3.8751448906       -3.5538388975        1.0925122574
 C          2.6350458867       -4.3114651289        0.6169301102
 H          2.8142380183       -4.7079919804       -0.3827535118
 H          2.5020907263       -5.1632616258        1.2868481039
 C          1.3473882214       -3.4752785964        0.6179840276
 H          1.4944245683       -2.5865256549        1.2370839114
 H          0.5387989791       -4.0508827681        1.0752874066
 C          0.8698412702       -3.0432804903       -0.7689001578
 H          0.5927649453       -3.9268036055       -1.3475452362
 H         -0.0222946519       -2.4238247389       -0.6463774956
 C          1.8954104808       -2.2320300040       -1.5717065610
 H          2.6988534210       -2.8784150192       -1.9233946784
 H          1.3869207873       -1.7962655566       -2.4347595807
 H          3.6678070095       -3.0837031639        2.0568907680
 H          4.6812226361       -4.2756634748        1.2425298984
 H          4.5138234277       -2.9144958828       -0.8689284530
 H          5.3700368510       -2.1437998419        0.4776603744
 O          3.9724804387       -0.2722144457        0.8628991437
 C          3.3018042871        0.9373893704        0.9579160545
 O          3.7880570436        1.7294177011        1.7918151310
 H          0.1385584298        0.4750063363        1.3856890006
 C         -0.5103361359        1.2917766443        1.0950843708
 C          0.0328782276        2.4110824973        0.4808744095
 C         -0.8237915037        3.4489157810        0.1285022852
 C         -2.1796721094        3.3649940161        0.3891362620
 C         -2.7175848369        2.2395483001        0.9858802844
 C         -1.8752324340        1.1885253086        1.3243665103
 N         -2.4089740879        0.0253459861        1.9102110495
 S         -3.7177950075       -0.7284140462        1.1851610304
 O         -4.8821391558        0.1080616200        1.3368263033
 O         -3.7845668932       -2.0317137620        1.8064709090
 C         -3.3079880403       -0.8952756669       -0.5414296315
 C         -2.7088657030       -2.0651425012       -0.9626335839
 C         -2.3461649668       -2.1927901569       -2.2934979952
 C         -2.5748203208       -1.1470141711       -3.1731942967
 C         -3.1806250916        0.0199819891       -2.7357019336
 C         -3.5561574612        0.1497569104       -1.4087305304
 H         -4.0404417864        1.0380304446       -1.0396606740
 H         -3.3588641175        0.8315594121       -3.4226073874
 H         -2.2799957011       -1.2429693374       -4.2062318250
 H         -1.8794105063       -3.1019650638       -2.6371508303
 H         -2.5523337776       -2.8557905343       -0.2456625454
 H         -1.7083269460       -0.6631262749        2.1430696794
 H         -3.7725529957        2.1542164936        1.1907150348
 H         -2.8279669134        4.1852225098        0.1209457200
 H         -0.4241403014        4.3283916603       -0.3493735920
 C          1.5185768110        2.5074402525        0.2241349335
 H          1.9789394983        3.0251750445        1.0793827535
 C          1.8239072383        3.2955971664       -1.0386058781
 C          2.0986604125        4.7675614689       -0.9810862661
 C          3.2163647279        3.8070295608       -1.2503198263
 H          3.6383185934        3.7641614375       -2.2431819107
 H          3.9336222449        3.6228890324       -0.4631885561
 H          1.7529769832        5.3887635630       -1.7937760330
 H          2.0735000729        5.2474706186       -0.0140797691
 H          1.2984492526        2.9064374333       -1.9032955844
 O          0.7341123862        0.3412358383       -1.5302245101
