  62
        -98.93675316
 C         -2.4214036711       -1.1481926907        0.1617828915
 C         -2.4906021902        0.0438745749       -0.6010279578
 C         -3.8464653442        0.5157377904       -0.9286767682
 C         -4.9143503773       -0.1820981944       -0.5036641663
 C         -6.3447432290        0.2169031991       -0.7201317191
 C         -6.8630967875        1.0728604075        0.4441375352
 C         -5.9351486934        2.2271296208        0.8232002658
 H         -5.0025593650        1.8198455546        1.2206369722
 H         -6.4163313025        2.7780027838        1.6342477125
 C         -5.6152706510        3.1894288230       -0.3291982752
 H         -5.7010015749        4.2146125245        0.0369946351
 H         -6.3484157157        3.0680851997       -1.1274049112
 C         -4.2071331152        3.0403676364       -0.9084606898
 H         -3.4715778408        3.0680295124       -0.1003523877
 H         -4.0133162613        3.8993827443       -1.5563412683
 C         -3.9580265598        1.7758093487       -1.7401658673
 H         -2.9935389088        1.8944763311       -2.2427584686
 H         -4.7334606750        1.6767184825       -2.5025419837
 H         -6.9842278049        0.4298133456        1.3189237027
 H         -7.8444012874        1.4662796420        0.1729560211
 H         -6.4251703654        0.7682296553       -1.6548435371
 H         -6.9479676565       -0.6898249468       -0.7897445400
 O         -4.8084941459       -1.3193247337        0.2307111118
 C         -3.5690049423       -1.8155594636        0.5980535306
 O         -3.6193650807       -2.8396059442        1.3083792598
 H          1.3860425561       -0.9175385766       -0.3459408345
 C          1.0510393259       -0.3752063998        0.5222574343
 C         -0.1757822316       -0.6522480932        1.1018486242
 C         -0.5773111357        0.0987621328        2.2043505935
 C          0.2266483378        1.1024995851        2.7070977248
 C          1.4589005075        1.3658562019        2.1347723586
 C          1.8668811006        0.6252473113        1.0325620966
 N          3.0992031324        0.8840477837        0.4112313429
 S          3.9688066241       -0.4178971563       -0.2164332919
 O          3.5073799291       -0.6998561082       -1.5521715867
 O          3.9414289549       -1.5247207640        0.7142334121
 C          5.6036859608        0.2924054101       -0.2852761615
 C          6.4946710393        0.0482881215        0.7427411754
 C          7.7509321420        0.6320710362        0.6937766766
 C          8.0918565598        1.4479201825       -0.3745475622
 C          7.1871038352        1.6831988873       -1.3993487871
 C          5.9298407712        1.1018640388       -1.3572156335
 H          5.1969603876        1.2484031183       -2.1336091092
 H          7.4564716148        2.3158524905       -2.2296759368
 H          9.0699139282        1.9011340124       -0.4103723901
 H          8.4576185460        0.4485665171        1.4870032624
 H          6.1888157261       -0.5996626020        1.5483945249
 H          3.6883499833        1.5085587975        0.9444830252
 H          2.0913555007        2.1464803010        2.5297617058
 H         -0.1027407501        1.6796438471        3.5583030475
 H         -1.5376291533       -0.1134282527        2.6562194639
 C         -1.0923936421       -1.7400389517        0.5984296397
 H         -1.3376246863       -2.3907161710        1.4553388092
 C         -0.4357473804       -2.6318941769       -0.4445094447
 C         -1.2545694916       -3.4146814048       -1.4257452856
 C         -0.4049609699       -2.2754987233       -1.8989054990
 H          0.4939140182       -2.4943443259       -2.4576489704
 H         -0.8879836029       -1.3588042814       -2.1980901070
 H         -2.3262182596       -3.2790399568       -1.4029446529
 H         -0.9462265742       -4.4221836451       -1.6611584379
 H          0.4464713804       -3.1297162230       -0.0503222164
 O         -1.4863777621        0.6919295105       -0.9932664172
