  62
        -98.94292856
 C         -2.0083074355       -0.5122301331        0.0787618250
 C         -2.6378083307        0.7547948838        0.2001408957
 C         -3.9974012561        0.8675575604       -0.3417204729
 C         -4.5596151172       -0.2054425290       -0.9267905765
 C         -5.9535837361       -0.2514368069       -1.4805499720
 C         -6.9583589048       -0.7232199173       -0.4202850780
 C         -6.8362156374        0.0101943397        0.9153556452
 H         -7.6131532363       -0.3826028727        1.5747966032
 H         -5.8740242672       -0.2355116022        1.3704694477
 C         -6.9732705505        1.5359454820        0.8163828269
 H         -7.4432084873        1.8056169651       -0.1300904858
 H         -7.6325800575        1.8812204508        1.6155568958
 C         -5.6570946335        2.3019113428        0.9636433377
 H         -5.8928724106        3.3610444917        1.0982821785
 H         -5.1362812359        1.9668597417        1.8643267561
 C         -4.6873092980        2.1971204521       -0.2203115910
 H         -3.8931736357        2.9337075033       -0.0659079241
 H         -5.2096891742        2.4457278931       -1.1465659828
 H         -7.9664291133       -0.5929942605       -0.8180268504
 H         -6.7981066816       -1.7888147295       -0.2413080715
 H         -5.9675960091       -0.9506364362       -2.3182583674
 H         -6.2274316688        0.7381933186       -1.8411874941
 O         -3.9249974314       -1.3970345588       -1.0387499450
 C         -2.6428189551       -1.5888998536       -0.5420259300
 O         -2.2115095143       -2.7433344780       -0.7260572364
 O         -2.0852610046        1.7486524502        0.7454012236
 C         -0.6061976281       -0.6286514335        0.6522527936
 C          0.4465337620       -0.4732790522       -0.4196191963
 C          0.5408074269       -1.3648517355       -1.4841705434
 C          1.5137882991       -1.1988233586       -2.4520717559
 C          2.4240828482       -0.1592309622       -2.3669701152
 C          2.3423470184        0.7327690490       -1.3055366109
 C          1.3509138835        0.5761639374       -0.3457295518
 H          1.2946781204        1.2856799390        0.4660705438
 N          3.2603183434        1.7945814414       -1.1786242264
 S          4.1915723052        1.8581567021        0.2122403545
 O          3.3481568786        2.0671063762        1.3599670303
 O          5.1905445591        2.8695905849       -0.0492151336
 C          4.9628442887        0.2510063858        0.2922713695
 C          4.2469156956       -0.8132361898        0.8041240069
 C          4.8213021172       -2.0744389403        0.7869699391
 C          6.0933034824       -2.2492853463        0.2638311820
 C          6.8007158826       -1.1695703226       -0.2428511680
 C          6.2295242366        0.0926627171       -0.2355062977
 H          6.7429504635        0.9607112439       -0.6164801438
 H          7.7910891625       -1.3078049402       -0.6458010196
 H          6.5350713307       -3.2331678279        0.2525698754
 H          4.2691454019       -2.9133871438        1.1789220832
 H          3.2607691149       -0.6440560249        1.2046581732
 H          3.8562711136        1.9124979739       -1.9864669664
 H          3.1880052291       -0.0349201341       -3.1197267922
 H          1.5705112704       -1.8924607027       -3.2770944998
 H         -0.1649508013       -2.1782507815       -1.5509379856
 H         -0.5067302599        0.2262157374        1.3356232441
 C         -0.3726255030       -1.9001509488        1.4447461931
 C          0.6811459653       -1.9044268891        2.5098924417
 C         -0.7687454783       -1.9462599107        2.8883133092
 H         -1.1762811321       -2.8655835696        3.2809583234
 H         -1.2094719763       -1.0566106011        3.3148968384
 H          1.2727742717       -2.7962117592        2.6479529340
 H          1.2193200976       -0.9843266213        2.6877341404
 H         -0.5097261603       -2.8025622838        0.8638728086
