  62
        -98.93700376
 C          1.8061865459        0.9520692491        0.7856898967
 C          2.0596902405        0.3391589790       -0.4638920096
 C          3.4728699721        0.2644357258       -0.8739096716
 C          4.4220213282        0.7815474876       -0.0751724372
 C          5.9098015243        0.8484132806       -0.3133307807
 C          6.5935524760       -0.4104777521       -0.8665058595
 C          5.9612290206       -1.7405087629       -0.4309614243
 H          6.7443464984       -2.3943696910       -0.0423282863
 H          5.2487328548       -1.5704124608        0.3780770564
 C          5.2640713764       -2.4749220617       -1.5789568696
 H          5.1715031869       -3.5311302769       -1.3145983577
 H          5.8971890671       -2.4151523237       -2.4669951556
 C          3.8637396519       -1.9719131732       -1.9281803691
 H          3.1633842704       -2.2392567444       -1.1320121133
 H          3.5352113526       -2.4931768674       -2.8305027444
 C          3.7439484860       -0.4572153029       -2.1623744589
 H          4.6231400273       -0.0651882692       -2.6678312864
 H          2.8691931917       -0.2841266408       -2.7947324307
 H          6.6106244136       -0.3673149275       -1.9546494835
 H          7.6327034249       -0.3764125372       -0.5349124846
 H          6.1100508725        1.6885089329       -0.9845227161
 H          6.3412647931        1.1028286970        0.6576971580
 O          4.1281959819        1.3768858283        1.1163613921
 C          2.8276207449        1.4657480328        1.5814470287
 O          2.7143897644        2.0107142201        2.6988248524
 H         -2.0972060247        0.2126191930        0.4382431872
 C         -1.5139002641       -0.5782216268        0.8775743788
 C         -0.2436780609       -0.3178414672        1.3653682488
 C          0.4738995343       -1.3607854375        1.9461903169
 C         -0.0600988255       -2.6323207300        2.0157376249
 C         -1.3256708210       -2.8902995669        1.5183113504
 C         -2.0554008065       -1.8552345314        0.9475181847
 N         -3.3249394040       -2.0924045725        0.4073937240
 S         -4.5168544278       -0.9259747794        0.4271083610
 O         -4.5043948430       -0.1665991074        1.6559234150
 O         -5.7366571364       -1.6550716606        0.1507529346
 C         -4.1506133976        0.1360557511       -0.9544767092
 C         -3.6201703546       -0.4075652674       -2.1072532844
 C         -3.3651582505        0.4272546136       -3.1834226497
 C         -3.6499940357        1.7811799060       -3.0933611719
 C         -4.1902356874        2.3103552511       -1.9316141605
 C         -4.4443725125        1.4814363398       -0.8503181110
 H         -4.8523663501        1.8518930781        0.0769727779
 H         -4.4106207704        3.3640032339       -1.8632788960
 H         -3.4474830173        2.4282259961       -3.9323193229
 H         -2.9401506558        0.0201034783       -4.0867236908
 H         -3.4015574898       -1.4616538671       -2.1437971334
 H         -3.6886620954       -3.0246043175        0.5346160206
 H         -1.7419980434       -3.8849668706        1.5672037900
 H          0.5117404616       -3.4315053671        2.4634259501
 H          1.4627878341       -1.1599992356        2.3368599170
 C          0.3814568886        1.0543596791        1.2976927325
 H          0.4509403190        1.4482412828        2.3226926953
 C         -0.4027525601        2.0350374561        0.4503301911
 C         -1.5416275161        2.8075508402        1.0424951901
 C         -0.2538615241        3.5014422276        0.7175618567
 H         -0.2305310594        4.1790930269       -0.1223639522
 H          0.3934244489        3.7927726262        1.5322245952
 H         -1.7808297739        2.6317097760        2.0806908886
 H         -2.4021233203        3.0084896973        0.4225316751
 H         -0.4817072599        1.7196631328       -0.5840066722
 O          1.1537417732       -0.1185880783       -1.2064848232
