  62
        -98.94666166
 C          1.1538055762        1.3519585068        0.2944296266
 C          1.3671701267        0.3451550219       -0.6781905067
 C          2.3470220882       -0.6893105091       -0.3219893588
 C          2.9210498091       -0.6871476352        0.8936461772
 C          3.9279925232       -1.6821255893        1.4032574517
 C          5.3726562580       -1.3663546563        0.9911926383
 C          5.6984875231       -1.6229954683       -0.4809021822
 H          6.7845441777       -1.5726888296       -0.5815023973
 H          5.3945373482       -2.6354161029       -0.7485956956
 C          5.0668670676       -0.6189444299       -1.4554596016
 H          4.7498607148        0.2712437380       -0.9072754910
 H          5.8168276056       -0.2959699720       -2.1811452661
 C          3.8770172286       -1.1634384344       -2.2463980494
 H          4.2118476057       -1.9706516455       -2.9016979074
 H          3.4886134905       -0.3587802546       -2.8758935737
 C          2.7255026890       -1.6848034213       -1.3762937306
 H          1.8534821726       -1.8395202525       -2.0158874855
 H          3.0014700541       -2.6354773685       -0.9218335608
 H          5.5870891138       -0.3234308397        1.2357022886
 H          6.0298170987       -1.9914270992        1.6002265807
 H          3.8684069003       -1.6567709629        2.4935054144
 H          3.6677774917       -2.6840439807        1.0607130831
 O          2.6230291773        0.2457029655        1.8352115611
 C          1.7715041623        1.2969838881        1.5491875733
 O          1.6389273784        2.1121172132        2.4837605451
 H         -1.2332498903        0.8437515321       -1.3903049694
 C         -1.8076784091        1.2927083193       -0.5934804630
 C         -1.1951725965        2.2055260821        0.2535157070
 C         -1.9418996854        2.7528265378        1.2899874013
 C         -3.2676385333        2.3961744815        1.4714105023
 C         -3.8724503662        1.4791438695        0.6296550272
 C         -3.1291899496        0.9214230404       -0.4018176793
 N         -3.7186455510       -0.0667065361       -1.2280584363
 S         -3.9309725393       -1.5428609052       -0.4645536265
 O         -4.3131642001       -2.4763376856       -1.4989483375
 O         -4.8681288964       -1.3672684669        0.6154548968
 C         -2.3287932246       -1.9797179812        0.1909023108
 C         -1.8997957475       -1.3863340405        1.3617279179
 C         -0.6401558231       -1.6979960306        1.8465922071
 C          0.1596924140       -2.6000611252        1.1630961488
 C         -0.2835422884       -3.1837525210       -0.0131645640
 C         -1.5356335120       -2.8641730522       -0.5113712157
 H         -1.9188085534       -3.2949219207       -1.4226266895
 H          0.3438310740       -3.8819596412       -0.5432260135
 H          1.1333768481       -2.8477995637        1.5544028657
 H         -0.2840691161       -1.2311700002        2.7520193071
 H         -2.5522355464       -0.7022486352        1.8797564604
 H         -3.1902061666       -0.2206890756       -2.0769469385
 H         -4.8936765227        1.1658065050        0.7730527373
 H         -3.8343664302        2.8317134835        2.2803609026
 H         -1.4710030086        3.4503996792        1.9674189757
 C          0.2589951836        2.5626006786        0.0680720290
 H          0.5295335868        3.2803464019        0.8537634221
 C          0.4933118343        3.2182074104       -1.2796871043
 C          0.0978534195        4.6502730835       -1.4696040927
 C          1.5474917669        4.2743389632       -1.4072582512
 H          2.1321482732        4.3123262132       -2.3142052052
 H          2.1043962020        4.5355857184       -0.5188662981
 H         -0.3159482248        4.9487851577       -2.4205402513
 H         -0.3274137285        5.1686506704       -0.6235129672
 H          0.3634386554        2.5446294409       -2.1162558959
 O          0.7910149337        0.2894988529       -1.7977584069
