  62
        -98.94477801
 C          1.8459157920        0.7259553268        0.4074691593
 C          2.4664730744        0.1509574024       -0.7281449321
 C          3.5308059574       -0.8212016551       -0.4454106735
 C          3.8197157594       -1.1488946177        0.8269706162
 C          4.8591038593       -2.1414278276        1.2726646387
 C          6.2783013472       -1.5631440674        1.3576818810
 C          6.9524767957       -1.2928813453        0.0120076004
 H          8.0077261525       -1.1006772081        0.2158989300
 H          6.8988432145       -2.1895016194       -0.6063322092
 C          6.3730435172       -0.0981079894       -0.7582391246
 H          5.7880308586        0.5248772574       -0.0778029752
 H          7.1893184109        0.5210800092       -1.1369043107
 C          5.5003136695       -0.4777696330       -1.9546545810
 H          6.1083583210       -0.9883925092       -2.7047096929
 H          5.1144121608        0.4412554659       -2.4028836065
 C          4.3037105453       -1.3724024505       -1.6052043776
 H          3.6320082216       -1.4011046977       -2.4668705366
 H          4.6414574766       -2.3864866219       -1.3918392609
 H          6.8898181792       -2.2816408513        1.9083953054
 H          6.2449028372       -0.6398341215        1.9406361298
 H          4.8548422231       -3.0024280409        0.6034753348
 H          4.5631694134       -2.4750953877        2.2697541623
 O          3.1591832117       -0.6142952946        1.8891607871
 C          2.1726283507        0.3423308769        1.7074182902
 O          1.6576056248        0.7569754709        2.7667457155
 O          2.1506366636        0.4294822483       -1.9131881521
 C          0.7560230830        1.7678857164        0.2300713030
 C         -0.4113818319        1.1704068992       -0.5184994215
 C         -1.0371047599        1.7933620939       -1.5896783069
 C         -2.1044667990        1.1848902585       -2.2288686141
 C         -2.5767570571       -0.0447348851       -1.8103010455
 C         -1.9707561035       -0.6667571440       -0.7252402241
 C         -0.9033706288       -0.0557021880       -0.0864981034
 H         -0.4309019362       -0.5436514037        0.7576567258
 N         -2.4563935687       -1.9063486972       -0.2760287237
 S         -4.1135177739       -2.0934484984       -0.1382281806
 O         -4.2981691010       -3.0837032973        0.8995855183
 O         -4.6731484933       -2.4223741547       -1.4256086410
 C         -4.7249556944       -0.5039094757        0.3947901001
 C         -4.2415366595        0.0159337832        1.5792891607
 C         -4.6819012013        1.2623300475        1.9933330836
 C         -5.5942258834        1.9641226699        1.2199933245
 C         -6.0746609925        1.4260339055        0.0365007014
 C         -5.6356220517        0.1806522307       -0.3838296870
 H         -5.9795137759       -0.2734677878       -1.2987741796
 H         -6.7854645393        1.9731187809       -0.5614068031
 H         -5.9317588065        2.9358120748        1.5441554226
 H         -4.3079729340        1.6814663929        2.9137920102
 H         -3.5350897886       -0.5546275641        2.1612745451
 H         -1.9762385122       -2.2671892184        0.5347396120
 H         -3.3948573321       -0.5387494618       -2.3088442217
 H         -2.5730953286        1.6746427535       -3.0685295320
 H         -0.6833721579        2.7513177905       -1.9327161851
 H          0.4118921730        2.0211237959        1.2436473660
 C          1.3211889752        3.0142162746       -0.4180857509
 C          0.7114195851        4.3535698955       -0.1366009794
 C          2.0510400941        4.0046248054        0.4369675079
 H          2.9292220709        4.4863158248        0.0337557500
 H          2.1178423385        3.7926609098        1.4945336174
 H          0.6714719916        5.0801631000       -0.9339640138
 H         -0.1326452399        4.3874769107        0.5353140505
 H          1.7139582990        2.8257001480       -1.4104163087
