  62
        -98.93707933
 C          1.8753077704        0.9741658673        0.0617375256
 C          2.3421624571       -0.3608486432        0.0164054186
 C          3.7683396204       -0.5545315240        0.3272685636
 C          4.5228929230        0.5119949352        0.6482920259
 C          6.0032111458        0.4874892768        0.9035146855
 C          6.7645138310        0.4002155510       -0.4348179083
 C          7.5473352522       -0.8980889097       -0.6323909703
 H          7.8560085087       -0.9372339722       -1.6792304551
 H          8.4528907968       -0.8629273799       -0.0231042464
 C          6.7999780169       -2.1893013163       -0.2849990754
 H          7.3697035121       -3.0130414320       -0.7203866614
 H          6.8108517088       -2.3409106532        0.7953659064
 C          5.3499393621       -2.2801170539       -0.7777852875
 H          5.1683157148       -3.3034148188       -1.1130048482
 H          5.1948838314       -1.6322510526       -1.6409453297
 C          4.2884398551       -1.9648077139        0.2929755468
 H          3.4054040702       -2.5823614846        0.1024487859
 H          4.6725835893       -2.2377314287        1.2797727909
 H          7.4629621726        1.2348448351       -0.5114889416
 H          6.0436745593        0.5186092047       -1.2466058689
 H          6.2527149881       -0.3568956991        1.5420897480
 H          6.2585660141        1.4093228307        1.4263458788
 O          4.0299892145        1.7767631228        0.7029643237
 C          2.7022597721        2.0412378103        0.4115470949
 O          2.3836561608        3.2438575485        0.5029868435
 O          1.6103717029       -1.3444179954       -0.2700264304
 C          0.4254665630        1.2869853125       -0.2688363242
 C         -0.4795879119        0.5320571312        0.6733455632
 C         -0.3381213335        0.7535507619        2.0418049541
 C         -1.1170964568        0.0684283788        2.9526366661
 C         -2.0609167864       -0.8464731058        2.5182035957
 C         -2.2120995893       -1.0740215347        1.1561178042
 C         -1.4293905335       -0.3790825105        0.2419485730
 H         -1.5541334930       -0.5923348472       -0.8056236748
 N         -3.1426009566       -2.0183710470        0.6966999528
 S         -4.1176469710       -1.7204669224       -0.6250117558
 O         -5.1249021037       -2.7566017357       -0.5673233436
 O         -3.3341139113       -1.6577052854       -1.8314482787
 C         -4.8635475688       -0.1372132209       -0.2827756640
 C         -5.9719581981       -0.1013023552        0.5412069110
 C         -6.5307513130        1.1249862888        0.8614082115
 C         -5.9689826729        2.2901934294        0.3613672709
 C         -4.8561143212        2.2370629054       -0.4633741849
 C         -4.2944251992        1.0127503058       -0.7906401478
 H         -3.4329028105        0.9331121917       -1.4324579237
 H         -4.4216522087        3.1436994459       -0.8535295586
 H         -6.4021874463        3.2454161593        0.6128023943
 H         -7.3992307801        1.1695221015        1.4986434858
 H         -6.3840121065       -1.0311726088        0.8983826639
 H         -3.6607428896       -2.4844971004        1.4267037053
 H         -2.6642506946       -1.3911174843        3.2284770350
 H         -0.9910172879        0.2465602846        4.0099433467
 H          0.4043792670        1.4647097930        2.3784565613
 H          0.2990061715        2.3622783532       -0.0770918210
 C          0.1546836137        1.0199484415       -1.7339966779
 C         -0.9107972343        1.7891335492       -2.4531779922
 C          0.5346013844        2.0613086269       -2.7417226686
 H          0.9441191917        1.7387265486       -3.6872634909
 H          0.9677438248        2.9778707906       -2.3677656439
 H         -1.4973093828        1.2784159399       -3.2029254475
 H         -1.4553171226        2.5313262553       -1.8888345189
 H          0.3109976635       -0.0165505656       -2.0107651927
