  62
        -98.94524439
 C          0.9616341821        1.5320952630       -0.6617189061
 C          2.1875235023        1.7879642232        0.0081108184
 C          3.2280306499        0.7638078937       -0.1204061726
 C          2.9904677227       -0.3348287962       -0.8594020777
 C          3.9572468639       -1.4608593622       -1.1081650459
 C          4.0009985001       -2.5108866189        0.0101896528
 C          4.6809574093       -2.0613863811        1.3037315903
 H          4.8372156416       -2.9549753410        1.9113085178
 H          5.6641654236       -1.6490401717        1.0751252314
 C          3.8705546286       -1.0448639092        2.1201568105
 H          2.8327190062       -1.0457482265        1.7787014946
 H          3.8632539408       -1.3424051598        3.1711202349
 C          4.4068299941        0.3851380492        2.0582128033
 H          5.3958903577        0.4276730108        2.5201331554
 H          3.7377229931        1.0286882921        2.6351348568
 C          4.5061094917        0.9576824692        0.6384342628
 H          4.6877320327        2.0326672809        0.7138551798
 H          5.3385753618        0.4993529211        0.1047731525
 H          4.5433801500       -3.3761348921       -0.3777147386
 H          2.9792250830       -2.8231260061        0.2307539449
 H          4.9566766699       -1.0541746566       -1.2669823983
 H          3.6315416644       -1.9501410963       -2.0283638743
 O          1.8150918349       -0.5333066430       -1.5090553526
 C          0.7706621037        0.3782475953       -1.4230485727
 O         -0.2356103985        0.0333497505       -2.0730932411
 O          2.4040678593        2.8352354236        0.6752014891
 C         -0.1262021835        2.5784640034       -0.4934274406
 C         -1.0782863427        2.1982454952        0.6160740978
 C         -1.3011967479        3.0548810916        1.6875734051
 C         -2.1782367777        2.7022447512        2.6979867971
 C         -2.8463115379        1.4924287320        2.6578139924
 C         -2.6238547424        0.6238945037        1.5935151336
 C         -1.7455044876        0.9814534227        0.5813664925
 H         -1.5885038658        0.3102654709       -0.2474565857
 N         -3.2447073502       -0.6285069683        1.5599779469
 S         -3.5007565463       -1.4767522959        0.1469440707
 O         -3.9443833827       -0.6175330185       -0.9254943865
 O         -4.4365815641       -2.5134946115        0.5369409710
 C         -1.9447187146       -2.2500933741       -0.2336364270
 C         -1.6506628617       -2.5296989293       -1.5519907301
 C         -0.4787275373       -3.2060707463       -1.8490115107
 C          0.3743108708       -3.5892646019       -0.8275067496
 C          0.0668316955       -3.2964678199        0.4924572015
 C         -1.1050947746       -2.6235808463        0.7965942867
 H         -1.3702305060       -2.3781222465        1.8120391046
 H          0.7350812450       -3.5904150906        1.2873872275
 H          1.2858580047       -4.1159133067       -1.0644603866
 H         -0.2319140026       -3.4196555745       -2.8765823012
 H         -2.3303115746       -2.1974704869       -2.3202118731
 H         -3.9533950189       -0.7967354355        2.2574441196
 H         -3.5303852682        1.2147948499        3.4449902769
 H         -2.3446018050        3.3761222486        3.5246476046
 H         -0.7729310081        3.9958406201        1.7305943631
 H          0.4001341016        3.4922227148       -0.1840163740
 C         -0.8998735598        2.8804084714       -1.7615413523
 C         -1.5241319346        4.2322621984       -1.9277765925
 C         -0.3335003905        3.8490297424       -2.7537427951
 H         -0.4728275447        3.6486485359       -3.8053668160
 H          0.6175378398        4.3045932377       -2.5183649947
 H         -2.4871898416        4.2965209264       -2.4106997688
 H         -1.3797458388        4.9531644906       -1.1372463427
 H         -1.4403229928        2.0266337012       -2.1502968758
