  62
        -98.93802840
 C         -1.9030853217        1.0915025765        0.1143957491
 C         -2.4044726423       -0.0051994927        0.8582388394
 C         -3.5195196730       -0.7367661463        0.2298941903
 C         -3.9787034316       -0.3750389014       -0.9799212854
 C         -5.0817763428       -1.0469455473       -1.7522814942
 C         -6.4921623176       -0.5907939259       -1.3546611120
 C         -6.9809940619       -1.0973584818        0.0028091882
 H         -6.8576223278       -2.1797334681        0.0512012908
 H         -8.0512803069       -0.8884335750        0.0564352736
 C         -6.2898263266       -0.4446070723        1.2080184396
 H         -7.0407297909       -0.1594965082        1.9482865511
 H         -5.7902760999        0.4727951665        0.8884090372
 C         -5.2725714464       -1.3391088312        1.9167026573
 H         -5.7832605905       -2.1986603585        2.3566383367
 H         -4.8175621367       -0.7661558672        2.7286729004
 C         -4.1446119541       -1.8526493331        1.0122272718
 H         -4.5217951728       -2.6240302962        0.3407787934
 H         -3.3679549435       -2.2896258532        1.6452663218
 H         -7.1796752811       -0.9527540435       -2.1225832702
 H         -6.5225761737        0.5010742622       -1.3688560217
 H         -5.0018179860       -2.1286087525       -1.6390310223
 H         -4.9214886135       -0.7948308459       -2.8028171659
 O         -3.4575120546        0.6742596290       -1.6708229604
 C         -2.4274125320        1.4289226592       -1.1380501847
 O         -2.0627783358        2.3766705813       -1.8626437280
 O         -1.9804678717       -0.3765331255        1.9811622561
 C         -0.7435770767        1.9803433801        0.5420376871
 C          0.4593518892        1.6883649803       -0.3204524694
 C          1.1946531057        2.7253225300       -0.8840018346
 C          2.2865637005        2.4623589167       -1.6908659732
 C          2.6793187141        1.1579879691       -1.9300381852
 C          1.9546121306        0.1140842476       -1.3677636385
 C          0.8462533060        0.3801847538       -0.5769649080
 H          0.2853008753       -0.4443569228       -0.1612497897
 N          2.3409291581       -1.2309626896       -1.5688519928
 S          3.0000216619       -1.9922826071       -0.2280203383
 O          3.4232441449       -3.2952757422       -0.6899641462
 O          2.0558492239       -1.9591913484        0.8566348979
 C          4.4310714697       -0.9994038840        0.1636633545
 C          4.2645727974        0.1482513133        0.9131316976
 C          5.3634598778        0.9602773800        1.1460113738
 C          6.6014868796        0.6145563796        0.6263122683
 C          6.7525188294       -0.5417717414       -0.1241888291
 C          5.6569502204       -1.3555102549       -0.3641899599
 H          5.7273710669       -2.2655902255       -0.9379460993
 H          7.7169921794       -0.8099521168       -0.5243932208
 H          7.4535463803        1.2499915045        0.8091706207
 H          5.2452576861        1.8585248559        1.7302556626
 H          3.2889711099        0.3827878518        1.3070367081
 H          2.9667362846       -1.3539980535       -2.3537884187
 H          3.5333488514        0.9452054986       -2.5556500734
 H          2.8387444175        3.2775910857       -2.1320706165
 H          0.8876388660        3.7446441487       -0.7028712568
 H         -1.0565404808        3.0130976704        0.3113613657
 C         -0.4158802794        1.9406763538        2.0256788469
 C          0.6000330127        1.0186252881        2.6209602993
 C          0.8914790214        2.4844218831        2.5243484949
 H          0.8923044940        3.0680554215        3.4324151853
 H          1.6117504466        2.8075845976        1.7875452469
 H          0.3746253419        0.5923044936        3.5867591532
 H          1.1108585959        0.3260333064        1.9693680376
 H         -1.2918710121        2.1380526030        2.6342652602
