  62
        -98.94453185
 C         -1.2690960166       -1.7740147476       -0.6918659991
 C         -2.4614864585       -1.6510261032        0.0682382108
 C         -3.3903683066       -0.5932385156       -0.3374931638
 C         -3.1055733893        0.1634583035       -1.4121745567
 C         -3.9273295902        1.3101527912       -1.9330340322
 C         -3.6265285696        2.6350436992       -1.2179167270
 C         -4.1882740456        2.7460279848        0.2002794549
 H         -4.1139387270        3.7957672183        0.4915168212
 H         -5.2466225104        2.4812684354        0.1953981030
 C         -3.4450552429        1.8959623606        1.2407261252
 H         -2.4630570029        1.6183944672        0.8475441539
 H         -3.2633462769        2.4962018789        2.1359045938
 C         -4.1916228335        0.6370794493        1.6855566613
 H         -3.5509141656        0.0908864114        2.3829470227
 H         -5.1028728844        0.9229141276        2.2163663071
 C         -4.5693980575       -0.3173887965        0.5450268769
 H         -4.8876040364       -1.2662567300        0.9840963095
 H         -5.3938330745        0.0955352151       -0.0356374529
 H         -2.5426840427        2.7776072710       -1.1865416897
 H         -4.0534257534        3.4398337598       -1.8214542399
 H         -3.6762061819        1.4229043621       -2.9899323458
 H         -4.9892558765        1.0779013788       -1.8483969793
 O         -1.9999301425       -0.0413444780       -2.1692055714
 C         -1.0169424083       -0.9526913114       -1.7912595864
 O         -0.0160514016       -0.9267322054       -2.5311377340
 O         -2.7251031231       -2.3898775834        1.0554075475
 C         -0.2316903244       -2.7313394425       -0.1303826956
 C          0.4611617472       -2.0672243721        1.0373835473
 C          0.8131667124       -2.7744207776        2.1806514236
 C          1.4196929398       -2.1268675249        3.2433722677
 C          1.6702482960       -0.7672992079        3.1962671121
 C          1.3058181542       -0.0467203429        2.0627064483
 C          0.7287976939       -0.7074625260        0.9895902239
 H          0.4394100180       -0.1412570609        0.1203174103
 N          1.4787657294        1.3374731580        2.0075416196
 S          1.4576328719        2.2430393704        0.6095242250
 O          1.7961927081        3.5742394610        1.0672607167
 O          0.1933665303        2.1116114121       -0.0691209189
 C          2.8099000579        1.6152057415       -0.3684694782
 C          2.5958658265        0.8644593768       -1.5051689608
 C          3.6954070293        0.3955420689       -2.2099190560
 C          4.9779742914        0.6771441628       -1.7694098006
 C          5.1761084113        1.4352270545       -0.6243892227
 C          4.0842618303        1.9089412673        0.0819987785
 H          4.1939076102        2.5179241019        0.9645322842
 H          6.1745297784        1.6572001089       -0.2836486771
 H          5.8263370527        0.3059813900       -2.3223967738
 H          3.5304354728       -0.1919737392       -3.0987559379
 H          1.5929195163        0.6394935775       -1.8342969616
 H          1.9992697556        1.7610892796        2.7585993328
 H          2.1215824837       -0.2609406847        4.0353442934
 H          1.6890454579       -2.6853903397        4.1269243265
 H          0.5852843489       -3.8279763619        2.2464252006
 H         -0.8035234096       -3.5830577410        0.2730807019
 C          0.7442297435       -3.2777120651       -1.1593712534
 C          2.1521318247       -2.7859329580       -1.2826311859
 C          1.8858798895       -4.1555298079       -0.7388131502
 H          2.1264973665       -5.0105943701       -1.3520151180
 H          2.0393972463       -4.3106237394        0.3176986114
 H          2.5611871147       -2.6871415385       -2.2756387853
 H          2.4814523927       -2.0166685010       -0.6005584040
 H          0.2456211451       -3.5398920305       -2.0862416322
