  62
        -98.93900871
 C         -0.7259728236       -1.6834550540        0.5832652492
 C         -1.6384488520       -1.5242108625       -0.4872798594
 C         -2.8176424397       -0.6893490292       -0.2093381793
 C         -2.9660153027       -0.1230482711        1.0007703040
 C         -4.1500645950        0.6696278005        1.4925324732
 C         -4.4473484471        2.0040733385        0.7826477063
 C         -5.4400854480        1.8999921865       -0.3810701044
 H         -6.0679555645        1.0207432350       -0.2322896550
 H         -6.1043048821        2.7662879584       -0.3546391383
 C         -4.8169036524        1.8555560212       -1.7793305125
 H         -4.5029131282        2.8626501245       -2.0624121600
 H         -5.5941681608        1.5459247342       -2.4812797992
 C         -3.6084735974        0.9327629932       -1.9401368480
 H         -3.3901817688        0.8395491494       -3.0056206111
 H         -2.7273688941        1.3884202589       -1.4831534541
 C         -3.7910375407       -0.4701300663       -1.3305966965
 H         -4.8133516989       -0.6096623175       -0.9817332113
 H         -3.5769957996       -1.2341404869       -2.0805666892
 H         -3.5157094084        2.4520085718        0.4425360309
 H         -4.8734982016        2.6699618788        1.5349709919
 H         -5.0355900454        0.0312993167        1.4417599231
 H         -3.9468042906        0.8665736005        2.5476459671
 O         -2.0359823611       -0.2617490055        1.9879293134
 C         -0.9030379192       -1.0353306030        1.8063946764
 O         -0.1446734604       -1.0714709687        2.7976231718
 H          2.1648126260       -0.5557241464        0.8764684163
 C          2.2376252648       -0.9036177489       -0.1435114022
 C          1.4535957802       -1.9746534658       -0.5569380918
 C          1.5741442569       -2.4265469508       -1.8646709520
 C          2.4563455473       -1.8116889137       -2.7356946946
 C          3.2331099198       -0.7449443885       -2.3233040092
 C          3.1263584755       -0.2901181504       -1.0128148144
 N          3.9342259070        0.7632825780       -0.5642782304
 S          3.4588000617        1.7982944793        0.6494382744
 O          4.3597845509        2.9236023635        0.5171114691
 O          3.4766899514        1.1244876937        1.9223333021
 C          1.8079028753        2.3277401787        0.2332040584
 C          1.6416424572        3.0672150123       -0.9220923835
 C          0.3776652977        3.5272666882       -1.2496771639
 C         -0.6939650709        3.2492074382       -0.4146053745
 C         -0.5114671850        2.5050078690        0.7398730422
 C          0.7501472531        2.0332180938        1.0671215420
 H          0.9197201345        1.4440964860        1.9556335384
 H         -1.3389879500        2.2832657530        1.3954163155
 H         -1.6749279105        3.6245024575       -0.6632337162
 H          0.2302214295        4.1053113299       -2.1475837759
 H          2.5018024118        3.2872141885       -1.5330186429
 H          4.4762179232        1.2272427718       -1.2773610827
 H          3.9245394532       -0.2709260108       -3.0028088386
 H          2.5388783065       -2.1682230368       -3.7511066222
 H          0.9663723759       -3.2477288128       -2.2047062220
 C          0.4967430935       -2.5762811107        0.4432666767
 H          0.9905721719       -2.5615343755        1.4250640041
 C          0.0980159156       -4.0023064467        0.1225694582
 C          1.0854649060       -5.1077997991        0.3388725826
 C         -0.1010572696       -4.9741438031        1.2445758037
 H         -0.8973754000       -5.6988660558        1.1634955078
 H          0.0601582726       -4.6152752971        2.2510769578
 H          1.1060774421       -5.9275901618       -0.3626542103
 H          2.0548769096       -4.8390976296        0.7312235359
 H         -0.5757678280       -4.0791220119       -0.7214715863
 O         -1.5025971795       -2.0688670507       -1.6125065634
