  62
        -98.94450367
 C          1.3023215093        1.7354765008       -0.7004270286
 C          2.5047891392        1.6160889407        0.0437127516
 C          3.4201901396        0.5452526012       -0.3588830188
 C          3.1110057200       -0.2309361383       -1.4127632293
 C          3.9189891404       -1.3893975877       -1.9293887298
 C          3.6336425006       -2.7004416982       -1.1832722406
 C          4.2254752804       -2.7850618089        0.2244344094
 H          5.2837310203       -2.5221042986        0.1915142198
 H          4.1564479106       -3.8288989391        0.5373315188
 C          3.5064303799       -1.9137847297        1.2643398898
 H          3.3429745199       -2.4964328903        2.1744618094
 H          2.5168604199       -1.6403808397        0.8873221097
 C          4.2651618195       -0.6486502897        1.6689120007
 H          5.1879099995       -0.9265441897        2.1837925307
 H          3.6416185892       -0.0882754703        2.3705699309
 C          4.6180511995        0.2835355111        0.5023908213
 H          5.4285698797       -0.1416407584       -0.0889853488
 H          4.9474329191        1.2399294909        0.9161291219
 H          4.0481637610       -3.5162726278       -1.7805876410
 H          2.5507296007       -2.8424117986       -1.1270853809
 H          4.9828432003       -1.1572369675       -1.8733632395
 H          3.6438142607       -1.5217158272       -2.9779938600
 O          1.9911926601       -0.0364684281       -2.1514592194
 C          1.0250708597        0.8941910614       -1.7786620491
 O          0.0128980399        0.8648674815       -2.5028197993
 O          2.7900966288        2.3706667103        1.0129155921
 C          0.2862055289        2.7236458302       -0.1541180082
 C         -0.4321615512        2.0954744393        1.0178059513
 C         -0.7688578516        2.8297398886        2.1486732917
 C         -1.4024286316        2.2169892478        3.2161589312
 C         -1.6964626512        0.8657619277        3.1858770503
 C         -1.3477740508        0.1176673685        2.0651059200
 C         -0.7417593308        0.7441641693        0.9872751505
 H         -0.4640832804        0.1568480698        0.1284865702
 N         -1.5670861304       -1.2601852616        2.0298637892
 S         -1.5298361599       -2.2074543108        0.6605012786
 O         -1.8815389196       -3.5223804511        1.1539564778
 O         -0.2551766898       -2.1019867300       -0.0033516011
 C         -2.8662804798       -1.6038406906       -0.3539386313
 C         -4.1469790998       -1.9179535712        0.0638762283
 C         -5.2280533298       -1.4592441710       -0.6685172217
 C         -5.0132670698       -0.6936335803       -1.8054786712
 C         -3.7245071798       -0.3912523097       -2.2130258508
 C         -2.6356180398       -0.8467303698       -1.4832605808
 H         -1.6287983798       -0.6082850194       -1.7902633305
 H         -3.5462531998        0.2016011308       -3.0957499104
 H         -5.8531374198       -0.3334149302       -2.3782832212
 H         -6.2310319598       -1.6984430015       -0.3538998820
 H         -4.2686194098       -2.5311876917        0.9418584779
 H         -2.1043783605       -1.6557970921        2.7842726888
 H         -2.1701597813        0.3861375171        4.0283411600
 H         -1.6595031220        2.7961952772        4.0899804615
 H         -0.5083435119        3.8764903386        2.2009264523
 H          0.8784100586        3.5650483902        0.2415708924
 C         -0.6675635011        3.2829413606       -1.1972370681
 C         -2.0858810209        2.8247049702       -1.3295474186
 C         -1.7912021014        4.1927228300       -0.7965043278
 H         -2.0046365315        5.0474277503       -1.4202189373
 H         -1.9508371016        4.3620203694        0.2569469823
 H         -2.4874979407        2.7259374507       -2.3256542787
 H         -2.4404096008        2.0703938297       -0.6434815791
 H         -0.1537098609        3.5236870512       -2.1218321178
