  62
        -98.93780235
 C         -1.1604122290       -1.8105783911       -0.5851137982
 C         -1.3271275395       -0.4894191916       -1.0681994792
 C         -2.6603268298        0.1166591681       -0.8645572997
 C         -3.6136905795       -0.5703351118       -0.2143886992
 C         -5.0536881697       -0.1994167222        0.0470734704
 C         -5.3729700203        1.2547171680        0.4074524793
 C         -4.3234867406        1.9423954790        1.2920853589
 H         -4.8200485708        2.3865644195        2.1570012985
 H         -3.6081602303        1.2087145396        1.6691359394
 C         -3.5637841910        3.0508499288        0.5618627481
 H         -3.1155103913        3.7164292595        1.3039444276
 H         -4.2734094612        3.6398400381       -0.0242900624
 C         -2.4335139908        2.5687434686       -0.3459476715
 H         -2.0326763311        3.4440163683       -0.8654986621
 H         -1.6289134906        2.1569630893        0.2705108488
 C         -2.8250138103        1.5130527076       -1.3940855207
 H         -3.8331876904        1.6850559969       -1.7648414809
 H         -2.1272019303        1.5969077473       -2.2319479908
 H         -5.5097191805        1.8367132272       -0.5027020411
 H         -6.3352567703        1.2460220180        0.9226138193
 H         -5.3687582595       -0.8539442017        0.8638520409
 H         -5.6369300996       -0.4849491431       -0.8339697794
 O         -3.3882031891       -1.8189570614        0.2880097617
 C         -2.1766308388       -2.4613238310        0.1159470822
 O         -2.1296605284       -3.6040438406        0.6171947231
 O         -0.4369490698        0.1596047683       -1.6717114096
 C          0.1231156813       -2.6108356607       -0.7489088076
 C          1.0472234211       -2.3545608495        0.4125332923
 C          1.5551373315       -3.3995801588        1.1745747331
 C          2.3794072314       -3.1409516676        2.2558916929
 C          2.7148058608       -1.8420212073        2.5915303520
 C          2.2163200605       -0.7891159080        1.8300521612
 C          1.3903879406       -1.0518798891        0.7475052913
 H          0.9867894103       -0.2355916397        0.1714664507
 N          2.5783081499        0.5295871823        2.1157300702
 S          1.7560250294        1.8449772316        1.5050115692
 O          2.3232359690        2.9684999723        2.2248443184
 O          0.3248335595        1.6935530011        1.6313833693
 C          2.2660498295        1.9345729305       -0.1976306308
 C          1.4115987793        2.4933279495       -1.1246722613
 C          1.8237789593        2.5888943687       -2.4439153513
 C          3.0778177595        2.1292183889       -2.8107581510
 C          3.9290281397        1.5785057099       -1.8651503805
 C          3.5236570697        1.4814499107       -0.5443097705
 H          4.1596765298        1.0527490215        0.2125864299
 H          4.9036175498        1.2186205201       -2.1537433502
 H          3.3928965195        2.1984804482       -3.8402349510
 H          1.1587750992        3.0124442378       -3.1791862817
 H          0.4367266592        2.8232245593       -0.8067855616
 H          3.0452876498        0.6989013532        2.9923537401
 H          3.3532745607       -1.6393947564        3.4376489019
 H          2.7611229316       -3.9592664670        2.8474026336
 H          1.2820025919       -4.4151903390        0.9284558538
 H         -0.1896356683       -3.6661921908       -0.6940238968
 C          0.7876716113       -2.4077369115       -2.1037691377
 C          2.0734812610       -1.6690664511       -2.3035176182
 C          2.0422637316       -3.1600007813       -2.4383157471
 H          2.1378329418       -3.5976726119       -3.4203584467
 H          2.4942023018       -3.7412093905       -1.6484348166
 H          2.1648355908       -1.0634424018       -3.1919042586
 H          2.5605680408       -1.2420967903       -1.4414032085
 H          0.0537433912       -2.3107548824       -2.8972444378
