  62
        -98.93722647
 C         -0.7562870379       -1.3839923118        0.7090816224
 C         -1.0969709186       -0.5990066263       -0.4192873084
 C         -2.1575445221        0.3993950456       -0.2004703070
 C         -2.6044369497        0.6378041934        1.0440675142
 C         -3.6515994052        1.6413649009        1.4490274204
 C         -5.0811402287        1.3590545671        0.9459568969
 C         -5.4400453360        2.0652549056       -0.3674691897
 H         -6.4699918420        2.4218471337       -0.3017513437
 H         -4.8101101848        2.9490825720       -0.4742617535
 C         -5.3446473785        1.2109210953       -1.6355061671
 H         -6.2201370642        0.5601304588       -1.6925079610
 H         -5.3805991220        1.8845837080       -2.4942338822
 C         -4.1057087782        0.3224305389       -1.7547455672
 H         -4.0633561721       -0.0666040839       -2.7739121961
 H         -4.2127160677       -0.5448393262       -1.0983998389
 C         -2.7762631657        1.0257785116       -1.4157113211
 H         -2.0618378754        0.8937812114       -2.2301374492
 H         -2.9390235203        2.0904772641       -1.2629333260
 H         -5.2280231635        0.2830781471        0.8539599756
 H         -5.7642123006        1.7120939327        1.7202971117
 H         -3.6505623647        1.6398512822        2.5410462713
 H         -3.3443976626        2.6355460204        1.1168772171
 O         -2.1036861710       -0.0112697802        2.1331775165
 C         -1.2204139557       -1.0681887397        1.9878578694
 O         -0.9149592553       -1.6294021637        3.0602530075
 H          1.9766657342       -0.7279829112        1.1575118351
 C          2.2215538388       -1.2396251507        0.2372497066
 C          1.3837816162       -2.2451682439       -0.2297327325
 C          1.7193953667       -2.8981535361       -1.4086345431
 C          2.8665668733       -2.5484130666       -2.0982798705
 C          3.6973601255       -1.5464032574       -1.6323591557
 C          3.3688065185       -0.8861761836       -0.4536558752
 N          4.2000918598        0.1234956676        0.0563914144
 S          3.5464162443        1.4216741401        0.8667425742
 O          4.5797332018        2.4350617660        0.8032721536
 O          3.1369631857        1.0361328046        2.1947033557
 C          2.1409186126        1.9722811079       -0.0824935926
 C          0.9765261024        2.3067125985        0.5759024075
 C         -0.0785746505        2.8324190914       -0.1513193617
 C          0.0425180158        2.9993647607       -1.5211449894
 C          1.2122176829        2.6411502726       -2.1715320770
 C          2.2763521411        2.1314733974       -1.4471416499
 H          3.2029497439        1.8624514361       -1.9272222180
 H          1.2988723930        2.7609081161       -3.2393306865
 H         -0.7797377489        3.4093062068       -2.0855706950
 H         -0.9875991607        3.1078074820        0.3586071281
 H          0.9153663941        2.1471953580        1.6417415582
 H          4.9676139997        0.3937777905       -0.5406377749
 H          4.5929599896       -1.2763042877       -2.1705205629
 H          3.1147449193       -3.0603007332       -3.0155322686
 H          1.0726572498       -3.6662963873       -1.7988823269
 C          0.1702823643       -2.5810223306        0.5998687294
 H          0.5179623811       -2.7671857766        1.6300405461
 C         -0.5351183139       -3.8507405348        0.1420421946
 C         -1.9782904921       -4.0911976521        0.4681923203
 C         -1.5608453711       -3.8502711045       -0.9498352949
 H         -1.5791718330       -4.6844274412       -1.6357882260
 H         -1.8062412614       -2.9041760796       -1.4055176381
 H         -2.2790419086       -5.0869782362        0.7576537957
 H         -2.5103936623       -3.3078832100        0.9889529537
 H          0.1172204786       -4.7166713867        0.1995568113
 O         -0.5706728771       -0.7218269489       -1.5531915934
