  62
        -98.93428267
 C         -2.5102156177       -0.7287042985        1.0213359818
 C         -3.5915271129       -1.0698571360        0.1715677162
 C         -4.7765041611       -0.1998115139        0.2656935772
 C         -4.7768988417        0.8375976326        1.1207855625
 C         -5.8896591639        1.8341966929        1.2646169044
 C         -5.6815158551        3.0366304031        0.3332530096
 C         -5.3627809312        2.6516213740       -1.1115155143
 H         -5.2673423848        3.5785373182       -1.6813343610
 H         -4.3897637683        2.1554524910       -1.1425727382
 C         -6.4131915931        1.7498184861       -1.7748287112
 H         -6.6130507581        2.1268077380       -2.7801029353
 H         -7.3495903651        1.8003204794       -1.2179889300
 C         -5.9908803269        0.2870598036       -1.9241372563
 H         -6.7026280883       -0.2056685087       -2.5919639222
 H         -5.0080871983        0.2366846183       -2.3997877604
 C         -5.9406031817       -0.5290237578       -0.6263068665
 H         -6.8833479918       -0.4206228791       -0.0864204420
 H         -5.8196138300       -1.5809856120       -0.9010825680
 H         -4.8516596806        3.6336095777        0.7185554962
 H         -6.5828199859        3.6518708481        0.3571862131
 H         -6.8373173060        1.3480678509        1.0413535195
 H         -5.9057445696        2.1849399594        2.2978895869
 O         -3.7248596682        1.1274558843        1.9287018261
 C         -2.5714678698        0.3649711016        1.8896432110
 O         -1.6798704881        0.7466440209        2.6750012866
 H          1.2982793402       -0.5521189351        1.4298981810
 C          1.0058726786       -0.4964985447        0.3898470377
 C         -0.2533633571       -0.9399737771        0.0148299684
 C         -0.6244290772       -0.8446713098       -1.3230440126
 C          0.2504571160       -0.3180789036       -2.2554309604
 C          1.5031908880        0.1319542316       -1.8762695385
 C          1.8817237652        0.0468182583       -0.5432828872
 N          3.1376756101        0.5329431283       -0.1390375325
 S          4.4714379900        0.1936239849       -1.1186008795
 O          4.4649335583        1.1068435116       -2.2335166630
 O          4.4941021744       -1.2126411167       -1.4545257428
 C          5.8088710910        0.5966710299       -0.0137387193
 C          6.4584878994       -0.4157027530        0.6663561136
 C          7.4813906530       -0.0854315276        1.5415262265
 C          7.8322762983        1.2438503746        1.7228390708
 C          7.1705595947        2.2488783747        1.0326821466
 C          6.1480968372        1.9258000701        0.1550564232
 H          5.6122287863        2.6716030928       -0.4085238440
 H          7.4481957404        3.2808199387        1.1749016089
 H          8.6285590538        1.4980284741        2.4044643706
 H          7.9998065310       -0.8642964154        2.0772204057
 H          6.1575814079       -1.4357150981        0.4882912029
 H          3.3344821813        0.3220740695        0.8298941354
 H          2.1911308850        0.5452295841       -2.5960267354
 H         -0.0462447582       -0.2534480707       -3.2918907817
 H         -1.6023562441       -1.1907570516       -1.6219353843
 C         -1.1985995465       -1.4973135137        1.0486709262
 H         -0.7657319827       -1.2852112519        2.0390752162
 C         -1.3821642851       -3.0058405064        0.9541954966
 C         -0.9315177555       -3.8333738096       -0.2079962118
 C         -0.1912903705       -3.9084526375        1.0912406591
 H         -0.2809389053       -4.8001608793        1.6928730122
 H          0.7816326883       -3.4412341707        1.1340876829
 H         -1.5577320392       -4.6620969336       -0.5010700356
 H         -0.4516411244       -3.3387569632       -1.0377302910
 H         -2.2936594655       -3.3312672253        1.4447033005
 O         -3.5903529677       -2.0398620208       -0.6282640687
