  62
        -98.94443021
 C         -1.7072958100       -1.4460751463        0.5628823668
 C         -2.6360278535       -1.0074966398       -0.4131370621
 C         -3.3961970387        0.2024095329       -0.0674166920
 C         -3.1471691640        0.8540645314        1.0818667715
 C         -3.8456555145        2.0946066960        1.5694395075
 C         -3.2862647346        3.4023741342        0.9924216745
 C         -3.6040162960        3.6546454588       -0.4820279472
 H         -4.6787525627        3.5603885833       -0.6407387138
 H         -3.3358981031        4.6916731568       -0.6942612005
 C         -2.8551502434        2.7383947622       -1.4605072201
 H         -2.0133308846        2.2644692758       -0.9511811224
 H         -2.4431091518        3.3351449457       -2.2771205405
 C         -3.7193362416        1.6463505536       -2.0896646133
 H         -3.0842378940        1.0387258741       -2.7388991956
 H         -4.4975729455        2.1001979542       -2.7073155464
 C         -4.3858661622        0.7123370924       -1.0715297544
 H         -5.2059657407        1.2254539043       -0.5696945592
 H         -4.7888165633       -0.1491626441       -1.6094607360
 H         -2.2045680780        3.4147861860        1.1401338388
 H         -3.7099097839        4.2219537512        1.5776969204
 H         -3.7202713210        2.1162114809        2.6543645825
 H         -4.9107370400        2.0242021255        1.3465185973
 O         -2.2082988975        0.4297539652        1.9700876106
 C         -1.4678158285       -0.7137325733        1.7296403752
 O         -0.6339224217       -0.9765949261        2.6205665178
 O         -2.8431315195       -1.5764300164       -1.5153944626
 C         -0.8166568973       -2.6672473494        0.3748381258
 C          0.4075050028       -2.1931779104       -0.3694603267
 C          0.3880333165       -1.9209876785       -1.7333376729
 C          1.4988794866       -1.3770120501       -2.3530468302
 C          2.6427698295       -1.0829748546       -1.6302216404
 C          2.6679275441       -1.3491653105       -0.2680194488
 C          1.5600291850       -1.9106615596        0.3497384039
 H          1.5754413138       -2.0939523392        1.4157136338
 N          3.8107697956       -1.0181147766        0.4858400991
 S          4.3781697232        0.5464962598        0.3106560200
 O          5.2144052315        0.6236367671       -0.8613182775
 O          5.0263749307        0.8641679350        1.5638854116
 C          2.9347860564        1.5732272477        0.0794742826
 C          2.8848019848        2.4352234543       -0.9972932938
 C          1.7729853782        3.2459613170       -1.1582734818
 C          0.7299767744        3.1766058536       -0.2479068348
 C          0.7900780700        2.2976712094        0.8224704163
 C          1.9029859566        1.4907117236        0.9934616351
 H          1.9607278524        0.8052850373        1.8244212637
 H         -0.0237706859        2.2228916841        1.5279390886
 H         -0.1338452803        3.8106024970       -0.3738551717
 H          1.7206194627        3.9276292417       -1.9916992059
 H          3.7153264211        2.4522379922       -1.6841457337
 H          3.7247268942       -1.2521367856        1.4647846241
 H          3.5100157270       -0.6427073625       -2.0954990656
 H          1.4715949668       -1.1675118770       -3.4114835875
 H         -0.5142503744       -2.1071339550       -2.2945038453
 H         -0.4986765447       -2.9657257257        1.3830477159
 C         -1.4969011639       -3.8504077102       -0.2772918843
 C         -0.8610844925       -5.2012836686       -0.1509637271
 C         -2.1281053296       -4.8968457446        0.5890410719
 H         -3.0459814847       -5.3562667375        0.2544856014
 H         -2.0737455118       -4.7631906041        1.6599928932
 H         -0.9062953472       -5.8725569777       -0.9945919022
 H          0.0536517618       -5.2731513586        0.4184266280
 H         -1.9977552456       -3.6135303086       -1.2053066032
