  62
        -98.93735271
 C         -2.2779203675       -0.6978993684        0.1195196395
 C         -3.5485969325       -1.0628191152        0.6346747041
 C         -4.7145943097       -0.5714537572       -0.1069897313
 C         -4.5341986895        0.1835257815       -1.2054777015
 C         -5.6195621169        0.7369652604       -2.0885037249
 C         -6.2208643259        2.0564354993       -1.5853696126
 C         -7.1243696628        1.9328549081       -0.3578521825
 H         -7.6455278252        2.8857594051       -0.2467395837
 H         -7.8798280410        1.1679092899       -0.5398329944
 C         -6.3792598122        1.6229569576        0.9480331547
 H         -6.7470285824        2.2775043108        1.7414872342
 H         -5.3161709943        1.8407831938        0.8211291235
 C         -6.5340580239        0.1839567853        1.4405310877
 H         -5.9376563595        0.0662614872        2.3488830774
 H         -7.5787236417       -0.0054864370        1.6969036758
 C         -6.0776674810       -0.8810348882        0.4346155980
 H         -6.0195334418       -1.8406824847        0.9540363718
 H         -6.7992523089       -0.9655526494       -0.3776895404
 H         -5.4057314742        2.7512165793       -1.3702183106
 H         -6.8101204629        2.4781533867       -2.4028742195
 H         -6.4105810331       -0.0044589213       -2.2046315166
 H         -5.1638149216        0.9163294826       -3.0646362827
 O         -3.3006125805        0.5270844613       -1.6592883083
 C         -2.1435646765        0.1236371156       -1.0009810619
 O         -1.0991062471        0.5620749001       -1.5167573290
 O         -3.7003764909       -1.7658919891        1.6690102324
 C         -1.0526917434       -1.1842116048        0.8718462918
 C         -0.0788690380       -0.0542938534        1.0879586909
 C         -0.4591221338        1.0104336346        1.9016422418
 C          0.3993154882        2.0678916824        2.1294857694
 C          1.6626584316        2.0784525607        1.5647089746
 C          2.0479758897        1.0258304665        0.7437457364
 C          1.1792608457       -0.0310681642        0.5094952092
 H          1.4976692223       -0.8229932086       -0.1476815491
 N          3.3106528557        1.0218297902        0.1309561052
 S          4.1004182200       -0.4528603142       -0.0806248003
 O          3.6577764414       -1.0602302931       -1.3101600026
 O          3.9691151583       -1.2598990433        1.1123913101
 C          5.7830289759        0.1110923175       -0.2620256177
 C          6.1937891916        0.5847470672       -1.4939228225
 C          7.4892451123        1.0572071341       -1.6316652025
 C          8.3472826738        1.0492400844       -0.5417502870
 C          7.9214539227        0.5692597242        0.6876215400
 C          6.6266397787        0.0962448039        0.8326562405
 H          6.2538352929       -0.2934807765        1.7662024244
 H          8.5917739646        0.5614296215        1.5319320888
 H          9.3550729078        1.4171983207       -0.6522233085
 H          7.8245184550        1.4287030772       -2.5865532728
 H          5.4936788505        0.5634984598       -2.3129955812
 H          3.9291169400        1.7355399294        0.4906273371
 H          2.3379860634        2.9009343414        1.7460230431
 H          0.0881098620        2.8871274538        2.7603027720
 H         -1.4444161524        0.9981184204        2.3485203103
 H         -1.4412578025       -1.4866464854        1.8595943377
 C         -0.4000187069       -2.4197347542        0.2708254027
 C         -1.2153008572       -3.4634768549       -0.4302577498
 C         -0.2532717840       -2.6175419530       -1.2066761073
 H          0.6593340344       -3.0674202494       -1.5712303742
 H         -0.6445980664       -1.8505198923       -1.8566412423
 H         -0.9724522778       -4.5022550133       -0.2647037471
 H         -2.2719609727       -3.2732408563       -0.5502376209
 H          0.4184937677       -2.7817049352        0.8877164083
