  62
        -98.93763762
 C         -2.3014038418       -0.3409261171       -0.2028255320
 C         -1.5774403289       -1.0413307013       -1.1998364411
 C         -0.9820270929       -2.3382723540       -0.8348962724
 C         -1.1592975436       -2.7935678281        0.4188535439
 C         -0.6250032996       -4.0582959211        1.0372107063
 C          0.8637915157       -3.9490478593        1.4007887983
 C          1.7446399342       -3.3302724802        0.3187410103
 H          1.3885647201       -2.3179695582        0.1183094050
 H          2.7520688172       -3.2303157825        0.7332990995
 C          1.8458937853       -4.1237940613       -0.9820458104
 H          2.5803300293       -3.6150635463       -1.6113841812
 H          2.2322182984       -5.1210192126       -0.7596820546
 C          0.5519885847       -4.2712976943       -1.7864051073
 H         -0.0917975590       -5.0361280315       -1.3603523872
 H          0.8296167110       -4.6199879064       -2.7852830094
 C         -0.2277627015       -2.9750219252       -1.9776737296
 H         -0.9696439832       -3.1260520359       -2.7711321790
 H          0.4509745186       -2.2038324804       -2.3593897426
 H          1.2320932440       -4.9447545140        1.6561859838
 H          0.9490068211       -3.3137804012        2.2866519234
 H         -1.1943004197       -4.2234187229        1.9549873870
 H         -0.8021750305       -4.9038100133        0.3787206848
 O         -1.8694353460       -2.0941418654        1.3453158486
 C         -2.3954947723       -0.8398963412        1.0955744232
 O         -2.9212622027       -0.3131825612        2.0989654830
 O         -1.4214116224       -0.5870403556       -2.3662856202
 C         -2.7884671691        1.0452994677       -0.6013346232
 C         -1.6023021552        1.9739152814       -0.4842707071
 C         -1.1572711277        2.7419437621       -1.5524446521
 C          0.0271414483        3.4541836173       -1.4657278782
 C          0.8103588093        3.3754966647       -0.3276993272
 C          0.3616742588        2.6239836825        0.7497015859
 C         -0.8545174636        1.9672048999        0.6853232678
 H         -1.1847401473        1.3755699682        1.5278580609
 N          1.2400162394        2.4199263277        1.8584030826
 S          1.9461817023        0.8856600086        1.7096181303
 O          0.9485053761       -0.1614707110        1.6822446401
 O          2.9166218245        0.7904333649        2.7792619879
 C          2.7621563230        0.9963356345        0.1349309746
 C          4.0196601791        1.5633162891        0.0703089593
 C          4.6352846182        1.6848061440       -1.1652041330
 C          3.9837477804        1.2444905577       -2.3076442147
 C          2.7208598686        0.6777929267       -2.2252874727
 C          2.1007321140        0.5517367929       -0.9928415119
 H          1.1142355888        0.1231504668       -0.8938576417
 H          2.2058276796        0.3390825104       -3.1103055645
 H          4.4609974262        1.3426452130       -3.2698480051
 H          5.6172494375        2.1242829861       -1.2343295354
 H          4.4853015959        1.8879162508        0.9862297907
 H          0.7556844834        2.4466614492        2.7470412597
 H          1.7657075849        3.8703489524       -0.2667470812
 H          0.3627135952        4.0418766176       -2.3057704248
 H         -1.7272290147        2.7477737428       -2.4692779948
 H         -3.0531805692        0.9776527696       -1.6657070207
 C         -3.9867933677        1.5646724094        0.1609579299
 C         -4.8303123961        2.6363109551       -0.4610124282
 C         -5.3656209951        1.2429925110       -0.3284415916
 H         -6.1350642444        1.0477853846        0.4029251716
 H         -5.4511223279        0.6414865336       -1.2215542139
 H         -5.2351810554        3.4054289664        0.1783138799
 H         -4.5572478818        2.9810923928       -1.4466185632
 H         -3.8382686114        1.5978146985        1.2321055437
