  62
        -98.94329591
 C         -1.0906621786       -1.4539965384       -0.8271256052
 C         -0.4556068122       -2.2267859594        0.1739987928
 C          0.9737475313       -2.5022064834       -0.0323764331
 C          1.5932798312       -1.9905630047       -1.1105596176
 C          3.0686613687       -2.0675326046       -1.3847960680
 C          3.8129633646       -1.0380356168       -0.5088318461
 C          4.7587393394       -1.6541477352        0.5214571732
 H          5.6529844332       -2.0222963884        0.0132110791
 H          5.0657243140       -0.8519420108        1.1963990987
 C          4.1758475707       -2.8047476560        1.3478116640
 H          4.2214741375       -3.7299902099        0.7706642558
 H          4.8311787900       -2.9425253936        2.2105604210
 C          2.7379197046       -2.6089523962        1.8473829757
 H          2.4849845543       -1.5487767157        1.9045089511
 H          2.6728473637       -3.0057184358        2.8630406962
 C          1.6686343178       -3.3345514373        1.0079178690
 H          2.1064864272       -4.2207482364        0.5393521067
 H          0.8709553092       -3.6720937033        1.6763172148
 H          4.3919562535       -0.3649787989       -1.1445629508
 H          3.0734502496       -0.4255223328        0.0132301681
 H          3.4298406345       -3.0735309668       -1.1826338998
 H          3.2190289757       -1.8475715464       -2.4422555550
 O          0.9495097449       -1.2528894208       -2.0524659307
 C         -0.3966215758       -0.9471169501       -1.9237639831
 O         -0.8503161829       -0.2270354016       -2.8363647195
 H         -0.9036913781        0.9704212339       -0.0571313364
 C         -1.6192520181        0.8264507053        0.7392488584
 C         -2.5902610494       -0.1581802232        0.6039871589
 C         -3.5188697404       -0.3178128374        1.6227543858
 C         -3.4416925236        0.4654052920        2.7627043124
 C         -2.4352054230        1.4006868864        2.9188627210
 C         -1.5112141297        1.5795339016        1.8946075021
 N         -0.4759798827        2.5198578417        1.9959807926
 S          0.9855501396        2.2389955301        1.2307695971
 O          1.3558088238        0.8428443726        1.2441021693
 O          1.9092236440        3.1360348464        1.8958905262
 C          0.7310166276        2.8143145717       -0.4337996891
 C         -0.0128922254        3.9606396416       -0.6329530640
 C         -0.1939064637        4.4233686047       -1.9259611993
 C          0.3715192065        3.7396976499       -2.9918339000
 C          1.1228137112        2.5959025696       -2.7747274943
 C          1.3076714515        2.1289677909       -1.4835276287
 H          1.8703936873        1.2314635132       -1.2801098795
 H          1.5535077730        2.0540787884       -3.6012316617
 H          0.2237732508        4.0963129334       -3.9989900114
 H         -0.7788545940        5.3122204096       -2.0998894077
 H         -0.4422309794        4.4620937333        0.2181784608
 H         -0.3626596194        2.9480449196        2.9027947348
 H         -2.3579989667        1.9836086543        3.8239141914
 H         -4.1641424743        0.3281955176        3.5530377950
 H         -4.2902325405       -1.0651221705        1.5344424729
 C         -2.5328700999       -1.0110339306       -0.6416860111
 H         -2.7710416281       -0.3759013751       -1.5074218589
 C         -3.4788660958       -2.1912281661       -0.6215829844
 C         -4.9059885017       -2.0166270885       -1.0442662663
 C         -3.9500114764       -2.7636165065       -1.9235370624
 H         -4.0528463267       -3.8349717455       -2.0079871814
 H         -3.6044228871       -2.2857629523       -2.8287805165
 H         -5.6693028532       -2.5781131198       -0.5270970222
 H         -5.2175445081       -1.0319206676       -1.3581601672
 H         -3.2611373749       -2.8857324920        0.1811622713
 O         -1.0508063413       -2.6646136914        1.1941328944
