  62
        -98.94042385
 C         -0.5298444793       -1.4562427272        0.0489856345
 C         -1.3582823258       -0.9572779407        1.0803700201
 C         -2.4116458417       -0.0184106281        0.6669078191
 C         -2.4966607166        0.3405022458       -0.6273601965
 C         -3.5955012271        1.1678679805       -1.2321274086
 C         -4.8649282634        0.3065823423       -1.3955498571
 C         -6.0455932151        0.7551142322       -0.5341901953
 H         -6.4865144776        1.6518384823       -0.9744751524
 H         -6.7983245875       -0.0351007830       -0.5737339404
 C         -5.7239253494        1.0628232126        0.9313694778
 H         -5.2795769475        2.0560413941        1.0103286548
 H         -6.6765177970        1.1056558209        1.4637578857
 C         -4.8090189405        0.0577663757        1.6429156532
 H         -5.1710076274       -0.0663287154        2.6657374077
 H         -4.8665057245       -0.9209851193        1.1660206983
 C         -3.3337938379        0.4909737081        1.7397960536
 H         -3.2784083836        1.5818949242        1.7872941476
 H         -2.9173874319        0.1018257249        2.6739007761
 H         -4.6110767560       -0.7281598422       -1.1561312936
 H         -5.1810713076        0.3179343414       -2.4396424274
 H         -3.8018346028        2.0320759068       -0.6057777084
 H         -3.2448873247        1.5096811230       -2.2051416121
 O         -1.6274167211       -0.0971128336       -1.5740848375
 C         -0.6342730560       -1.0151555232       -1.2697474702
 O          0.0715500562       -1.3507670624       -2.2386481170
 H          1.5778503844       -0.0868572725        0.6137872970
 C          2.2737270101       -0.7739461214        0.1544023487
 C          1.8867678697       -2.0913951216       -0.0551018771
 C          2.7994152490       -2.9694158133       -0.6262082330
 C          4.0611915995       -2.5301564235       -0.9870216431
 C          4.4397367863       -1.2167537243       -0.7840885085
 C          3.5347282645       -0.3303080695       -0.2087371229
 N          3.8789171600        1.0113212864       -0.0269651547
 S          3.0236026380        2.0676385612        0.9218130691
 O          3.8512657769        3.2556171951        0.9524513887
 O          2.6971802831        1.5035455803        2.2110424497
 C          1.5447681942        2.4306161334        0.0011720113
 C          0.3626107506        2.6280770729        0.6852814086
 C         -0.7659233249        3.0080581992       -0.0221982565
 C         -0.6955623847        3.1764859409       -1.3957270649
 C          0.4946534145        2.9567230148       -2.0705536324
 C          1.6295428933        2.5871414192       -1.3675762238
 H          2.5714383031        2.4161166218       -1.8619683529
 H          0.5423842718        3.0743995903       -3.1411547932
 H         -1.5737447895        3.4801690503       -1.9427888640
 H         -1.6920339761        3.1744304592        0.5036829614
 H          0.3456822221        2.4733576822        1.7531097376
 H          4.8368239513        1.2717215555       -0.1977697378
 H          5.4220026275       -0.8737349866       -1.0699206057
 H          4.7600557720       -3.2214059815       -1.4330244628
 H          2.5229264864       -3.9975812323       -0.7918874850
 C          0.5060650744       -2.5129006167        0.3806087447
 H          0.5067248272       -2.5904916671        1.4789735342
 C          0.0756105017       -3.8456563111       -0.2007973559
 C          0.4097258669       -5.1281978677        0.4990517046
 C         -1.0007046113       -4.6227511726        0.4941274960
 H         -1.7345625960       -5.1397988579       -0.1058122480
 H         -1.3992458612       -4.2052533540        1.4074412998
 H          0.6423827598       -5.9968714396       -0.0984439687
 H          0.9658418069       -5.0643762113        1.4221841520
 H          0.0668952964       -3.8392111777       -1.2853746283
 O         -1.2348217464       -1.2962147869        2.2898898625
