  62
        -98.94615186
 C         -1.0247457113       -1.5739841142       -0.1479147252
 C         -1.1618447348       -0.1855833687       -0.3962640585
 C         -2.2437875346        0.4895256799        0.3336198500
 C         -2.9754137146       -0.1852416046        1.2364847787
 C         -4.0826595079        0.3790304616        2.0850198185
 C         -5.4456260594        0.4319753702        1.3807161747
 C         -5.5780956967        1.5034785834        0.2977105922
 H         -6.6382371458        1.5742992468        0.0463873929
 H         -5.2749699907        2.4682019932        0.7057127925
 C         -4.7848039918        1.2108249551       -0.9834753049
 H         -4.5102430860        0.1538447136       -1.0076149378
 H         -5.4179443480        1.3976902870       -1.8536890783
 C         -3.5207565576        2.0537118477       -1.1522493187
 H         -3.7947071755        3.1055022529       -1.2589957398
 H         -3.0190677034        1.7391246907       -2.0704474402
 C         -2.5174910412        1.9252791437        0.0016141785
 H         -1.5720300341        2.3733778153       -0.3117389912
 H         -2.8822055835        2.4551499611        0.8817602770
 H         -5.6530315989       -0.5502478201        0.9498169995
 H         -6.2000698544        0.6243934060        2.1471262784
 H         -4.1691596563       -0.2744451602        2.9560571031
 H         -3.8077019990        1.3769912611        2.4284651960
 O         -2.7687780785       -1.5031062088        1.5006817092
 C         -1.8151058817       -2.2247394285        0.8039707552
 O         -1.7662036294       -3.4331097397        1.1160303168
 H          1.4319660901       -0.2437386890       -0.2498596712
 C          1.9274381148       -1.1398819253        0.0845506719
 C          1.3376745202       -2.3748052087       -0.1408159377
 C          1.9960984577       -3.5191647624        0.2934387454
 C          3.2114812475       -3.4240328692        0.9479905306
 C          3.7796865783       -2.1884549373        1.2018913324
 C          3.1262972720       -1.0391290771        0.7727251184
 N          3.6612326367        0.2363801605        1.0088048354
 S          2.6256307972        1.4971772432        1.3932999749
 O          3.4602491153        2.4385802749        2.1157520697
 O          1.4584534156        1.0312612543        2.1083816526
 C          2.1704706293        2.2449124894       -0.1559878121
 C          2.8758469737        1.9711144166       -1.3090047591
 C          2.5082574525        2.6102435647       -2.4824730290
 C          1.4554192155        3.5107151744       -2.4820724617
 C          0.7625110047        3.7803958247       -1.3129751597
 C          1.1223561474        3.1421376995       -0.1375875341
 H          0.6022130967        3.3099074049        0.7930637021
 H         -0.0609779052        4.4772400564       -1.3145290593
 H          1.1674623719        4.0010920677       -3.3987513101
 H          3.0412836907        2.3970719222       -3.3953737211
 H          3.6824324004        1.2570678687       -1.2817174885
 H          4.4969441370        0.2570820665        1.5750388509
 H          4.7164290260       -2.1117527135        1.7328174114
 H          3.7139731888       -4.3198453861        1.2802232757
 H          1.5410240614       -4.4853564893        0.1319391147
 C          0.0022299982       -2.4578055686       -0.8402155324
 H         -0.3678790578       -3.4867960716       -0.7320629848
 C          0.1588961500       -2.1554647206       -2.3183550870
 C          0.6858007707       -3.2225040798       -3.2278883646
 C         -0.7549513701       -2.8162087636       -3.3040403166
 H         -1.0895443738       -2.2462497541       -4.1575615127
 H         -1.4985924421       -3.4979791839       -2.9166856277
 H          0.9176234833       -4.1830191884       -2.7931444532
 H          1.3445055339       -2.9331612060       -4.0319574750
 H          0.4493364836       -1.1321587294       -2.5151150397
 O         -0.4378464583        0.4812300903       -1.1818433751
