  62
        -98.94093406
 C          1.8678670203        1.3253148695        0.6277014290
 C          1.8161716897       -0.0088258804        1.1087308293
 C          3.0418393092       -0.8011682711        0.9706152292
 C          4.1436886794       -0.2319792018        0.4494857188
 C          5.4901291290       -0.8854950526        0.2921729086
 C          5.6385506183       -1.7200092829       -0.9871535812
 C          4.8630515275       -3.0377069825       -0.9947480008
 H          5.2228570970       -3.6167280329       -1.8475709007
 H          5.1017864275       -3.6033877324       -0.0935744007
 C          3.3419742476       -2.8718747517       -1.1155971004
 H          3.1129156381       -1.8641810616       -1.4700517706
 H          2.9578394570       -3.5682321216       -1.8642504202
 C          2.5680022978       -3.1271065310        0.1777732298
 H          1.5113045978       -2.9329085704       -0.0216461100
 H          2.6734890373       -4.1748637810        0.4678238400
 C          2.9981807686       -2.2478403410        1.3596804195
 H          3.9685037085       -2.5712148414        1.7362938694
 H          2.2601212687       -2.3548809204        2.1586171397
 H          5.3300805884       -1.1101375929       -1.8394452613
 H          6.7007046081       -1.9456997235       -1.1073711915
 H          5.6959819689       -1.5106353225        1.1616595887
 H          6.2249326195       -0.0779077230        0.2629989182
 O          4.1608759200        1.0539725681        0.0147602185
 C          3.0198134805        1.8527357887        0.0427036686
 O          3.1906453110        2.9745473385       -0.4665563517
 O          0.7882135396       -0.5085715797        1.6387656897
 C          0.5806124208        2.1211209702        0.7463437692
 C         -0.3494483497        1.7753663205       -0.3892192505
 C          0.1055168700        1.7347665300       -1.7035248806
 C         -0.7594556105        1.4107931802       -2.7322550004
 C         -2.0847720706        1.1092958810       -2.4700312700
 C         -2.5499885402        1.1466729915       -1.1604832399
 C         -1.6804792398        1.4857321713       -0.1315575001
 H         -2.0541665995        1.5128788517        0.8804578199
 N         -3.8962689903        0.8761687623       -0.8766189295
 S         -4.3636185705       -0.0418460971        0.4416224309
 O         -5.7792602906       -0.2540362264        0.2365627512
 O         -3.9899467798        0.6246045229        1.6622498506
 C         -3.5004967914       -1.5921746676        0.2682560810
 C         -2.2357524613       -1.7483087782        0.7973851707
 C         -1.5813980720       -2.9565150686        0.6138736608
 C         -2.1906433928       -3.9790810184       -0.0951435288
 C         -3.4620779628       -3.8051511579       -0.6223045385
 C         -4.1232723521       -2.6019793375       -0.4415442686
 H         -5.1175336321       -2.4297701770       -0.8211205284
 H         -3.9375876434       -4.6023554577       -1.1707158383
 H         -1.6731351633       -4.9152967187       -0.2342384787
 H         -0.5938493020       -3.0743000291        1.0310368706
 H         -1.7608122107       -0.9480020484        1.3411280404
 H         -4.4535870806        0.6417092125       -1.6852461093
 H         -2.7568279609        0.8519160712       -3.2744173697
 H         -0.3973054807        1.3864796098       -3.7490324704
 H          1.1412937801        1.9667173093       -1.9065603309
 H          0.1043688208        1.7607603007        1.6736224794
 C          0.7838311817        3.6200519502        0.9028952288
 C          0.4765127419        4.6094107101       -0.1765125914
 C         -0.4054183878        4.5255709708        1.0309040989
 H         -0.3707044872        5.3242561110        1.7563270787
 H         -1.3835486681        4.0840312813        0.9077088792
 H          1.1397716624        5.4540125597       -0.2822330917
 H          0.0930917015        4.2391713001       -1.1142714312
 H          1.6376900219        3.8488949698        1.5319379885
