  62
        -98.93812755
 C         -2.5487231486       -1.1744967774        0.2218402079
 C         -2.7252034025       -0.4213082344       -0.9619243203
 C         -3.6126580263        0.7524282297       -0.8612069036
 C         -4.1852160004        1.0407625038        0.3204256958
 C         -5.0683694953        2.2130622298        0.6481336401
 C         -4.2384724436        3.3764814394        1.2172092155
 C         -3.6508552753        4.3223282436        0.1702998602
 H         -4.4562813732        4.9148335386       -0.2685198687
 H         -2.9847622170        5.0121992107        0.6937903758
 C         -2.8698336391        3.6467927932       -0.9601739499
 H         -2.2124825975        4.3957734197       -1.4059785240
 H         -2.2314456236        2.8615069415       -0.5503544816
 C         -3.7756440366        3.0651889497       -2.0558637897
 H         -4.7872513456        3.4475167704       -1.9210001908
 H         -3.4370780473        3.4217523268       -3.0306983795
 C         -3.8084163812        1.5315785061       -2.1331154348
 H         -4.7516628358        1.2176450519       -2.5921844449
 H         -3.0080812604        1.1832209563       -2.7936590805
 H         -3.4337530114        2.9495875860        1.8219832446
 H         -4.8707727706        3.9638186666        1.8861546834
 H         -5.6357345968        2.5240977657       -0.2238364327
 H         -5.7636640267        1.8731668214        1.4185104880
 O         -3.9755086404        0.2940052853        1.4410365953
 C         -3.1546196080       -0.8185441772        1.4250344261
 O         -3.0396786389       -1.3931503446        2.5279446968
 H         -0.2659280318       -0.2821925866        1.0443437230
 C          0.3187719454       -0.8774162482        0.3518921344
 C         -0.2478258450       -2.0201666925       -0.1997218111
 C          0.5212756490       -2.7834762294       -1.0680609540
 C          1.8120165958       -2.3970995202       -1.3863530419
 C          2.3635748856       -1.2490836510       -0.8489974537
 C          1.6080607817       -0.4840208288        0.0301116594
 N          2.1614373537        0.6893884543        0.5786405587
 S          3.6042166845        0.5283522544        1.4281308703
 O          3.7167746781       -0.7803633321        2.0304058201
 O          3.6398565560        1.6567916954        2.3329316726
 C          4.8616441086        0.7387169150        0.1857735787
 C          4.8605340443        1.9062420510       -0.5522064612
 C          5.8381586675        2.0877310739       -1.5173697900
 C          6.7962197783        1.1062718735       -1.7245432503
 C          6.7856035824       -0.0585071036       -0.9725285931
 C          5.8094673250       -0.2472793010       -0.0064315244
 H          5.7568915814       -1.1386346966        0.5979934260
 H          7.5313163082       -0.8200222165       -1.1348543240
 H          7.5557008639        1.2504093814       -2.4766823293
 H          5.8494743267        2.9919840334       -2.1043150047
 H          4.1006363550        2.6445907536       -0.3574988218
 H          1.5012688248        1.2256896898        1.1234056194
 H          3.3646674489       -0.9403021925       -1.1018879394
 H          2.3955452046       -2.9977330367       -2.0671319714
 H          0.1087130617       -3.6809380972       -1.4986127932
 C         -1.6512869783       -2.3976157528        0.2114672748
 H         -1.6110024169       -2.7537033604        1.2522204433
 C         -2.2619712399       -3.4833522763       -0.6507812606
 C         -2.0308844506       -4.9279470401       -0.3272134510
 C         -3.3747812020       -4.3113416815       -0.0845443367
 H         -4.1949977839       -4.5852416514       -0.7308526066
 H         -3.6713695222       -4.1103619001        0.9350623207
 H         -1.9316024607       -5.6296513621       -1.1416077613
 H         -1.4174110717       -5.1569367295        0.5312542635
 H         -2.3335205601       -3.1938652222       -1.6927709287
 O         -2.1638798700       -0.7071640501       -2.0511625628
