  62
        -98.93343279
 C         -2.3033612183       -0.6143798472        0.5544582102
 C         -2.7943230248       -0.0708053736       -0.6597467182
 C         -3.8125166371        0.9818271641       -0.5178497723
 C         -4.1817222800        1.4068522120        0.7024527579
 C         -5.1960664025        2.4766399692        1.0031169110
 C         -6.6471073041        1.9759421483        1.0035641663
 C         -7.2258232755        1.6554374767       -0.3752640489
 H         -8.3032340009        1.5312032290       -0.2489131867
 H         -7.0722868741        2.5068702342       -1.0389650908
 C         -6.6553853948        0.3856845853       -1.0225757864
 H         -7.4727454614       -0.2137752361       -1.4297652760
 H         -6.1626546667       -0.2221784979       -0.2601559289
 C         -5.6699845159        0.6427707338       -2.1626980753
 H         -5.3007944701       -0.3218132629       -2.5198387057
 H         -6.1872382305        1.1332061631       -2.9902512201
 C         -4.4583548682        1.4974187650       -1.7685140172
 H         -3.7201036839        1.4380867605       -2.5717368004
 H         -4.7564476548        2.5378608304       -1.6422070417
 H         -6.7107776299        1.0905034314        1.6404891912
 H         -7.2607195828        2.7567596563        1.4588980278
 H         -5.0916652058        3.2932154174        0.2881795824
 H         -4.9620949696        2.8553009856        2.0005096772
 O         -3.6371798765        0.9046663822        1.8436554303
 C         -2.7079326321       -0.1186375137        1.7968843740
 O         -2.3131184275       -0.4957422673        2.9213724726
 O         -2.4216571241       -0.4252566475       -1.8040955075
 C         -1.2842570838       -1.7486721353        0.5974870472
 C          0.0068890714       -1.3053689569       -0.0464991319
 C          0.3326170173       -1.4349898853       -1.3912722477
 C          1.5456921211       -0.9687717629       -1.8697580195
 C          2.4578669870       -0.3538057909       -1.0328777756
 C          2.1393832540       -0.1996282022        0.3096739506
 C          0.9294032119       -0.6792015282        0.7873659984
 H          0.6868423579       -0.5536075792        1.8359314528
 N          3.0460858547        0.4498486853        1.1687828700
 S          4.6145406761       -0.1496324866        1.2377592770
 O          4.6483697275       -1.5684934350        0.9670779311
 O          5.1252331356        0.2711508544        2.5242544324
 C          5.4732411924        0.7361022860       -0.0457485900
 C          6.1510645786        0.0380711786       -1.0259622484
 C          6.8235440653        0.7467733804       -2.0094598723
 C          6.8067895401        2.1330386144       -1.9945798743
 C          6.1233225872        2.8189778736       -1.0013722047
 C          5.4504745286        2.1167492426       -0.0142842723
 H          4.9104621181        2.6110622496        0.7760855107
 H          6.1124838458        3.8970456872       -0.9934319258
 H          7.3295628458        2.6825568511       -2.7614442482
 H          7.3556596514        0.2154821786       -2.7821011622
 H          6.1301634002       -1.0397222084       -1.0005493530
 H          2.6849292502        0.5898000479        2.1017311970
 H          3.4006437361        0.0105613362       -1.4070000031
 H          1.7790875200       -1.0825636217       -2.9174937499
 H         -0.3691524273       -1.8688254899       -2.0801783215
 H         -1.0609126935       -1.8633488635        1.6695963874
 C         -1.9034557750       -3.0805185948        0.1896602052
 C         -2.3272567564       -3.4768665040       -1.1913924543
 C         -1.1606123593       -4.1576723665       -0.5424182969
 H         -1.2848276633       -5.1773347534       -0.2089313042
 H         -0.1682300292       -3.9312838953       -0.8996199597
 H         -3.2523810638       -4.0289686021       -1.2829096826
 H         -2.1665282909       -2.7826613063       -1.9985604817
 H         -2.5674248144       -3.4210099860        0.9816550383
