  62
        -98.94533828
 C         -2.4567097399       -1.1362896309       -0.0600790894
 C         -3.1011677602       -0.2546505809        0.8395857004
 C         -3.5955372805        1.0041009589        0.2681600802
 C         -3.4037636804        1.2510138187       -1.0407732298
 C         -3.7901631506        2.5223879485       -1.7382996700
 C         -2.6329002108        3.5311791588       -1.7246966600
 C         -2.0085136710        3.7375774192       -0.3443741500
 H         -1.5100900208        2.8140315393       -0.0370662198
 H         -1.2254430812        4.4920527393       -0.4502402000
 C         -3.0003859912        4.1742929691        0.7433253598
 H         -2.5502149715        4.9855616393        1.3192560598
 H         -3.9059742913        4.5677502488        0.2803766897
 C         -3.3767039111        3.0760601191        1.7396123799
 H         -3.8981922913        3.5430587791        2.5793516798
 H         -2.4665192510        2.6167760394        2.1349807401
 C         -4.2839313108        1.9640083788        1.1975788100
 H         -4.6217374307        1.3669611289        2.0497608600
 H         -5.1593019008        2.4052287386        0.7174994998
 H         -3.0007409410        4.4857258787       -2.1054784802
 H         -1.8506689106        3.1727442689       -2.3982512399
 H         -4.6645243507        2.9491346684       -1.2508815502
 H         -4.0399953704        2.2849509483       -2.7736079000
 O         -2.7812302701        0.3809539588       -1.8749947696
 C         -2.2660624398       -0.8188015011       -1.4055570894
 O         -1.6853297596       -1.4995641510       -2.2707801592
 O         -3.2458477303       -0.5039818408        2.0681969705
 C         -1.8622949897       -2.4265400407        0.4807949209
 C         -0.3598243597       -2.3258025504        0.3820955011
 C          0.4395715006       -3.2245967703       -0.3097410587
 C          1.8055260006       -3.0161213500       -0.4052520886
 C          2.4010641502       -1.9157529497        0.1836711913
 C          1.6105493399       -1.0165950798        0.8878877711
 C          0.2474729100       -1.2317593701        0.9883808010
 H         -0.3678638202       -0.5238230302        1.5315452008
 N          2.2099870996        0.1214693404        1.4782927110
 S          2.7308518495        1.2766495004        0.3646437609
 O          2.7895375991        2.5204151705        1.1024682907
 O          1.9061974496        1.2734290600       -0.8232170392
 C          4.3835784796        0.7481944007       -0.0281446388
 C          4.6939130999        0.3587823006       -1.3159316687
 C          5.9864002700       -0.0581687892       -1.5951763885
 C          6.9381428799       -0.0789015188       -0.5869858484
 C          6.6098168697        0.3171464413        0.7013114215
 C          5.3205349695        0.7367563110        0.9869428113
 H          5.0221166493        1.0575257511        1.9709641612
 H          7.3528805596        0.2992866216        1.4821083416
 H          7.9420426900       -0.4059989786       -0.8071390282
 H          6.2432464702       -0.3662095492       -2.5959752384
 H          3.9174194500        0.3846377303       -2.0639093888
 H          1.6007235194        0.5742039003        2.1467338909
 H          3.4627983502       -1.7473001195        0.1049979814
 H          2.4139696208       -3.7193380099       -0.9530032684
 H         -0.0086196191       -4.0794466804       -0.7884171687
 H         -2.1347851498       -2.4483298406        1.5462966209
 C         -2.4489197193       -3.6431804009       -0.1991813490
 C         -2.4203524391       -4.9706873708        0.4961419712
 C         -3.7159421292       -4.2348501411        0.3389545809
 H         -4.4449220391       -4.6134204614       -0.3615665291
 H         -4.1509373395       -3.7693775211        1.2114074008
 H         -2.2615845788       -5.8593445709       -0.0954022187
 H         -1.9757113292       -5.0089893206        1.4789938012
 H         -2.3247749692       -3.6230321811       -1.2754779490
