  62
        -98.94024534
 C          2.4860156502        1.1329126908        0.0293094882
 C          2.6410702404        0.0055760504       -0.8126323313
 C          4.0209070605       -0.4672861194       -0.9975263912
 C          5.0300616304        0.1904987912       -0.3979523517
 C          6.4728150705       -0.2192257184       -0.4521536016
 C          6.8277199509       -1.1488529377        0.7170498288
 C          5.8482335112       -2.3076533779        0.9041088195
 H          6.2144005415       -2.9115364874        1.7372159198
 H          4.8751569312       -1.9086731280        1.1999404294
 C          5.6734679913       -3.1973762186       -0.3345141700
 H          6.5048393912       -3.0414096887       -1.0228599202
 H          5.7032419916       -4.2430782784       -0.0213703195
 C          4.3535100912       -2.9936339393       -1.0807554300
 H          3.5194332013       -3.0553818892       -0.3769051198
 H          4.2380082413       -3.8111741897       -1.7973224795
 C          4.2252249807       -1.6796121997       -1.8617089006
 H          5.0930036206       -1.5498695798       -2.5115096908
 H          3.3321480007       -1.7522095203       -2.4893688405
 H          7.8324912810       -1.5421688076        0.5526480089
 H          6.8394150508       -0.5589576473        1.6364623785
 H          6.6682364405       -0.7177748689       -1.3993838914
 H          7.0884193803        0.6796188518       -0.3902649921
 O          4.8423813102        1.2876375116        0.3801964378
 C          3.5700489301        1.7757959114        0.6261178977
 O          3.5353530499        2.7682473417        1.3819453272
 O          1.6802993205       -0.5790296102       -1.3781789009
 C          1.0987291801        1.6828661505        0.3050282380
 C          0.2156667404        0.6017196706        0.8794574887
 C          0.6836018908       -0.1448615187        1.9585436990
 C         -0.0928799589       -1.1393345387        2.5197865996
 C         -1.3595964789       -1.4018329392        2.0278436899
 C         -1.8367166792       -0.6623545999        0.9528132695
 C         -1.0510895495        0.3335086800        0.3877073190
 H         -1.4485634298        0.8905434095       -0.4437932113
 N         -3.1060017692       -0.9241222505        0.4134960898
 S         -4.0093226196        0.3585250089       -0.2071112607
 O         -3.5825652798        0.6295537184       -1.5565211809
 O         -3.9792057898        1.4756574494        0.7101171687
 C         -5.6320534394       -0.3814533115       -0.2285079502
 C         -5.9576054393       -1.2326025321       -1.2678829997
 C         -7.2050808591       -1.8359948325       -1.2735197993
 C         -8.1009310491       -1.5808082722       -0.2455568693
 C         -7.7609632392       -0.7226933016        0.7894079502
 C         -6.5143613494       -0.1166916712        0.8018379598
 H         -6.2094071495        0.5635114892        1.5807845894
 H         -8.4607593992       -0.5237372613        1.5850642802
 H         -9.0713689490       -2.0514316324       -0.2529918889
 H         -7.4740983991       -2.5010514029       -2.0782513889
 H         -5.2323987893       -1.3938012723       -2.0485994697
 H         -3.6661857290       -1.5295663304        0.9975644002
 H         -1.9681657486       -2.1779077392        2.4666209403
 H          0.2870145013       -1.7114510781        3.3531178198
 H          1.6708110808        0.0666334917        2.3481901488
 H          1.2244670000        2.4614403510        1.0725881676
 C          0.5317701498        2.3235090398       -0.9443555122
 C         -0.4816047505        3.4213900295       -0.8337537727
 C          0.9143293994        3.7317994097       -1.2818411030
 H          1.0791990492        3.9874096192       -2.3177144431
 H          1.5711488493        4.2444291702       -0.5939399933
 H         -1.2813275906        3.4579879790       -1.5588213326
 H         -0.7804269505        3.7274803300        0.1578433872
 H          0.4324113999        1.6213808693       -1.7650510419
