  62
        -98.93895077
 C         -1.7269145206       -1.0551451195       -0.2096600008
 C         -3.0696995906       -1.3742329893        0.1008408290
 C         -4.0753313504       -0.3653205788       -0.2640577003
 C         -3.6751411201        0.7699802914       -0.8656648496
 C         -4.5664364498        1.9246082219       -1.2256376789
 C         -4.8944801196        2.7501978912        0.0350031816
 C         -6.3695019096        2.7288194213        0.4363200817
 H         -6.4420742194        3.1568149007        1.4384347019
 H         -6.9310513394        3.3767953919       -0.2399232379
 C         -7.0426128099        1.3528892015        0.4323786608
 H         -7.9804334599        1.4560832514        0.9824377609
 H         -7.3105004800        1.0776543122       -0.5888251593
 C         -6.2321182502        0.2074211909        1.0525340701
 H         -6.9198474704       -0.4315826992        1.6102381097
 H         -5.5063711801        0.5931192703        1.7688377103
 C         -5.5125184805       -0.6944736986        0.0321328295
 H         -5.4892985007       -1.7153724889        0.4249733389
 H         -6.0818444305       -0.7157598579       -0.9013212805
 H         -4.5988003393        3.7884291912       -0.1226928177
 H         -4.2864220697        2.3722499205        0.8595149614
 H         -5.4782909699        1.5542576124       -1.6888342791
 H         -4.0295352597        2.5356348822       -1.9513839585
 O         -2.3743830500        1.0375803013       -1.1520737295
 C         -1.3679623703        0.1370664108       -0.8359309301
 O         -0.2245354302        0.5106835307       -1.1563343699
 O         -3.4101166109       -2.4512306596        0.6609048184
 C         -0.6357900608       -2.0543596700        0.1282151886
 C          0.4164830494       -1.4088500408        0.9943038989
 C          0.0191517396       -0.7409729114        2.1509524194
 C          0.9480344998       -0.1342666821        2.9728785997
 C          2.2953769197       -0.1735828223        2.6561240797
 C          2.7037621295       -0.8438281517        1.5106323292
 C          1.7678380494       -1.4662622209        0.6939402589
 H          2.1169749592       -1.9744632005       -0.1885709415
 N          4.0682522895       -0.9286741218        1.1752162391
 S          4.5977700696       -0.4048827410       -0.3244705306
 O          3.9431114694       -1.1505716802       -1.3667786410
 O          6.0385875996       -0.5230161514       -0.2628205707
 C          4.1503923000        1.3209525791       -0.3878860495
 C          5.1256269303        2.2614411987       -0.1141133389
 C          4.7830529206        3.6032455388       -0.1041655981
 C          3.4726257507        3.9808681093       -0.3573928578
 C          2.5062223605        3.0240461597       -0.6247391384
 C          2.8413594701        1.6783425696       -0.6416223592
 H          2.0946082399        0.9284174199       -0.8505006097
 H          1.4832734105        3.3034274601       -0.8218957782
 H          3.2024212610        5.0251943393       -0.3474443072
 H          5.5346954008        4.3482289685        0.1019058524
 H          6.1313480402        1.9211338383        0.0732475208
 H          4.6845309696       -0.5645632524        1.8888166493
 H          3.0233637499        0.3059521971        3.2929014099
 H          0.6224414399        0.3798419874        3.8645836500
 H         -1.0342715104       -0.7038237212        2.3938754494
 H         -1.1307633310       -2.8416440302        0.7163864081
 C         -0.0830284410       -2.6737746193       -1.1382372718
 C          0.4914514786       -4.0574919295       -1.1124092427
 C         -0.8267015313       -3.8053718587       -1.7790249025
 H         -0.8776609614       -3.8445042580       -2.8568762725
 H         -1.7243735314       -4.1494241988       -1.2861644727
 H          1.3510902886       -4.2672230693       -1.7313416629
 H          0.4901800485       -4.5814232401       -0.1684803430
 H          0.3787042192       -1.9453451490       -1.7966820414
