  62
        -98.94655040
 C         -1.0914748815       -1.8045696118       -0.2301297476
 C         -1.2259212173       -0.6117302951       -0.9848009122
 C         -2.5473686069        0.0357653682       -0.9336284702
 C         -3.5316617841       -0.5130168904       -0.2011233939
 C         -4.9081331915        0.0618365635       -0.0348570957
 C         -4.9885631682        0.9837633905        1.1890899389
 C         -3.8745723355        2.0290349697        1.2534678877
 H         -4.0614534324        2.6509512276        2.1320343364
 H         -2.9150804842        1.5317438955        1.4169980108
 C         -3.7665020784        2.9219467494        0.0099261457
 H         -3.6339738447        3.9561973552        0.3348783716
 H         -4.6933642066        2.8766080993       -0.5641715537
 C         -2.5824343848        2.5874873658       -0.8994096549
 H         -1.6755424338        2.5199371249       -0.2920159442
 H         -2.4504843312        3.4156048720       -1.6023888604
 C         -2.7208321726        1.3014103914       -1.7249961661
 H         -3.6809740101        1.3018508824       -2.2462233959
 H         -1.9222352998        1.2971101570       -2.4727676423
 H         -4.9329306202        0.3695292192        2.0908578610
 H         -5.9580597327        1.4856875245        1.1791298461
 H         -5.6095586739       -0.7638840622        0.0981511898
 H         -5.1765392859        0.6121863323       -0.9346194234
 O         -3.3690960310       -1.6586807992        0.5090724743
 C         -2.1522509788       -2.3183133142        0.5205515797
 O         -2.1412773516       -3.3524322491        1.2205367153
 O         -0.3101962291       -0.0970237702       -1.6780878279
 C          0.1965359126       -2.6059168546       -0.1525088717
 C          1.1481356011       -2.0663226728        0.8898856746
 C          1.9261788736       -2.9287993510        1.6548578410
 C          2.8284374990       -2.4299422877        2.5767770953
 C          2.9795739043       -1.0655980814        2.7495259563
 C          2.2013654680       -0.1952501805        1.9937653042
 C          1.2944289878       -0.7006266459        1.0729454789
 H          0.6931784577       -0.0142345679        0.5012820096
 N          2.3204822844        1.1876851161        2.1496746352
 S          1.6862652053        2.2870421133        1.0761313387
 O          2.3203045984        3.5361208633        1.4510260358
 O          0.2460923511        2.2818662888        1.1498315239
 C          2.2413624416        1.8297475830       -0.5564850113
 C          3.4173126283        1.1259830899       -0.7211274582
 C          3.8339895600        0.8111441846       -2.0042650667
 C          3.0794456462        1.2122636337       -3.0954543766
 C          1.9093139615        1.9305818446       -2.9133962357
 C          1.4833156010        2.2412458620       -1.6326362477
 H          0.5671702007        2.7794268454       -1.4510260949
 H          1.3183232714        2.2385763004       -3.7609014084
 H          3.4024734227        0.9594361156       -4.0932833561
 H          4.7426810017        0.2484173557       -2.1472351516
 H          3.9885626599        0.8173899566        0.1392525092
 H          3.1071784142        1.5287995095        2.6784931778
 H          3.6837082066       -0.6746000095        3.4675165774
 H          3.4235085861       -3.1095749752        3.1673623422
 H          1.8111944773       -3.9950933172        1.5323310208
 H         -0.0990972462       -3.6182779920        0.1567991968
 C          0.9240769885       -2.7019598461       -1.4822315893
 C          1.7717581086       -3.9002163241       -1.7794808113
 C          0.4713437997       -3.7046905854       -2.4985771960
 H          0.4878845285       -3.4233093074       -3.5404784566
 H         -0.3597020989       -4.3424135439       -2.2329047353
 H          2.6891194035       -3.7550844541       -2.3284998865
 H          1.8219731413       -4.6813864376       -1.0365159603
 H          1.2610316416       -1.7404890339       -1.8480000543
