  62
        -98.94014121
 C         -2.0286454411       -0.6692470566        0.9637505473
 C         -2.8714170051       -1.1697711256       -0.0595976104
 C         -4.2632762018       -0.6886714421       -0.0328984841
 C         -4.6540034156        0.1717964594        0.9232843382
 C         -6.0192762338        0.7868436905        1.0217789860
 C         -6.0823636116        2.1210908576        0.2650876857
 C         -5.5236281395        2.0526134920       -1.1563041458
 H         -5.6491276270        3.0416272825       -1.6024942569
 H         -4.4497358474        1.8571350010       -1.1083657884
 C         -6.1916945732        0.9992812940       -2.0511954257
 H         -7.1515599042        0.7058812676       -1.6244576657
 H         -6.3942579512        1.4468921128       -3.0265401585
 C         -5.3449774032       -0.2499596975       -2.3014395157
 H         -4.3495427690        0.0455354536       -2.6421648886
 H         -5.8115435521       -0.8199813058       -3.1092746964
 C         -5.1842940814       -1.1977135481       -1.1061227104
 H         -6.1655105789       -1.4363452366       -0.6911041996
 H         -4.7319892701       -2.1226980689       -1.4755575392
 H         -5.5067427930        2.8633626873        0.8231945238
 H         -7.1222835640        2.4514768244        0.2338299878
 H         -6.2408280471        0.9662004876        2.0752604110
 H         -6.7551774057        0.0936186471        0.6190066182
 O         -3.8194847385        0.6236460309        1.8945543437
 C         -2.4949638489        0.2261528713        1.9303669669
 O         -1.8368881526        0.7235296381        2.8673551863
 O         -2.5037522221       -1.9713582467       -0.9550869828
 C         -0.5600562947       -1.0417088959        1.0885046672
 C          0.2871354674       -0.1105412720        0.2607090267
 C          0.0348934792        0.0787561701       -1.0946813910
 C          0.8227540333        0.9342715333       -1.8427575625
 C          1.8798811990        1.6111930663       -1.2593555618
 C          2.1428173547        1.4248173287        0.0906789150
 C          1.3480065149        0.5683073655        0.8414497042
 H          1.5477885121        0.4399141118        1.8968135025
 N          3.2443189656        2.0844018383        0.6746922203
 S          4.7364138768        1.7103534892        0.0004421185
 O          5.7124952229        2.0313583955        1.0164743189
 O          4.8749615893        2.3983503584       -1.2573365297
 C          4.6497571020       -0.0509346684       -0.2636642661
 C          4.8384097310       -0.8833184977        0.8219784726
 C          4.6687090844       -2.2483676651        0.6577586683
 C          4.3004131428       -2.7538234330       -0.5798415176
 C          4.1180559630       -1.9051801105       -1.6602436306
 C          4.2936482030       -0.5394317542       -1.5045205360
 H          4.1641781983        0.1524189688       -2.3201854130
 H          3.8324359634       -2.3017069410       -2.6212008489
 H          4.1509595332       -3.8146645183       -0.7011297359
 H          4.8140307369       -2.9123413674        1.4948263559
 H          5.1242815760       -0.4515273538        1.7680586104
 H          3.2848633067        1.9789881583        1.6786663163
 H          2.5096249251        2.2757878578       -1.8286525218
 H          0.6134060077        1.0750234894       -2.8924007316
 H         -0.7810705936       -0.4586014118       -1.5533117969
 H         -0.3115922421       -0.8621020677        2.1462717182
 C         -0.2809179731       -2.5116395646        0.8001222235
 C          0.5756199690       -2.9875193093       -0.3315029121
 C          1.0849725095       -3.0689931989        1.0736355727
 H          1.1647868735       -4.0361281664        1.5458043036
 H          1.8549181184       -2.3688876257        1.3626071174
 H          0.2766483398       -3.8958763574       -0.8313497130
 H          1.0153350537       -2.2529997670       -0.9875558204
 H         -1.1237799132       -3.1424662955        1.0608373182
