  62
        -98.93919957
 C         -1.8154384715       -0.7548340654       -0.5528147196
 C         -0.9038953538       -1.5218521886       -1.3157044491
 C         -0.3657383771       -2.7222568396       -0.6672130381
 C         -0.7160331678       -3.0031922776        0.6010143921
 C         -0.2534467611       -4.1870028082        1.4064331531
 C          1.1169677896       -3.9829991315        2.0665842628
 C          2.3127214892       -4.0804211257        1.1186668227
 H          3.2073802390       -4.1571620178        1.7399264727
 H          2.2392634765       -4.9992405860        0.5349524235
 C          2.4721918025       -2.8787377670        0.1769934317
 H          1.9057289350       -2.0311317350        0.5719170711
 H          3.5212073434       -2.5713659300        0.1564969114
 C          2.0521112216       -3.1479869670       -1.2679602780
 H          2.2060436842       -2.2333716979       -1.8443188088
 H          2.6944623894       -3.9223783891       -1.6941131274
 C          0.5905915004       -3.5830948530       -1.4395108775
 H          0.4754761974       -4.6248464824       -1.1392148566
 H          0.3307713005       -3.4945091031       -2.4976798775
 H          1.1251757824       -3.0069107812        2.5588232220
 H          1.2268881875       -4.7487097912        2.8384307934
 H         -0.2279501337       -5.0771167988        0.7766644938
 H         -0.9971156714       -4.3367017654        2.1921778133
 O         -1.5769933555       -2.2300769845        1.3106536216
 C         -2.1423952323       -1.0873270334        0.7627924407
 O         -2.9106361306       -0.4840018406        1.5341024003
 O         -0.5566719230       -1.2178533606       -2.4904444794
 C         -2.3987580780        0.5137928058       -1.1706552006
 C         -2.1625017847        1.6368140359       -0.1893072816
 C         -3.0936056424        2.4186633691        0.4797935679
 C         -2.6831594797        3.3372369987        1.4336139071
 C         -1.3521808193        3.4768495952        1.7735620168
 C         -0.4064918115        2.7048353420        1.1071489474
 C         -0.8165827741        1.8421339723        0.1089346681
 H         -0.0759535058        1.2544040098       -0.4094692714
 N          0.9575190787        2.7881704984        1.4221056472
 S          1.9484870549        1.4399908355        1.3025217882
 O          1.2211813614        0.2032892877        1.4611584393
 O          3.0009869057        1.6888963533        2.2663315079
 C          2.6334641352        1.5941275222       -0.3337785720
 C          2.2866501926        0.7087082923       -1.3327557712
 C          2.8186104829        0.8828409498       -2.6010195314
 C          3.6880453159        1.9336559171       -2.8467223624
 C          4.0337851085        2.8123453569       -1.8304327031
 C          3.5017796681        2.6444325195       -0.5628095129
 H          3.7479992001        3.2989992495        0.2564837865
 H          4.7123057108        3.6273865249       -2.0241132039
 H          4.0975486662        2.0661969651       -3.8357025225
 H          2.5375068509        0.1984352899       -3.3860629108
 H          1.6030969203       -0.0980937156       -1.1166783605
 H          1.1718155204        3.3412020584        2.2386441567
 H         -1.0464246573        4.1603130250        2.5510666262
 H         -3.4253523480        3.9316683213        1.9452391966
 H         -4.1479429027        2.3084553819        0.3041149981
 H         -1.7558438075        0.7155597432       -2.0444343208
 C         -3.7733543689        0.2022911592       -1.7400187702
 C         -5.0446671190        0.1562904134       -0.9517039801
 C         -4.8531876961        1.2067457720       -2.0068006910
 H         -5.4148411465        1.1035988029       -2.9236380908
 H         -4.6920618032        2.2303400418       -1.7119848918
 H         -5.7319157313       -0.6523350748       -1.1566390393
 H         -4.9996415281        0.4189473042        0.0926966397
 H         -3.6668334312       -0.5779134917       -2.4910756896
