  62
        -98.94386507
 C         -1.5675487601       -1.4395063104       -0.2052080012
 C         -2.7439680801       -0.9655341107        0.4126249491
 C         -3.3257920400        0.2796779496       -0.1232171803
 C         -2.7103623499        0.8897493102       -1.1538456499
 C         -3.0718977199        2.1915920206       -1.8184686992
 C         -2.6661993399        3.4060879901       -0.9705993285
 C         -3.0618097299        3.3184286993        0.5006068714
 H         -2.5666400400        2.4533758790        0.9466382310
 H         -2.6613965299        4.2037882690        1.0024059219
 C         -4.5632077899        3.2594740392        0.7752382313
 H         -4.6933069800        3.3229024486        1.8586548113
 H         -5.0412661299        4.1358345195        0.3320289518
 C         -5.2905609700        2.0043342595        0.2850024906
 H         -5.5044213999        2.0610562801       -0.7790283494
 H         -6.2580122200        1.9701025692        0.7944133105
 C         -4.5817753200        0.6928753693        0.6063562999
 H         -4.3335291901        0.6711380487        1.6739117599
 H         -5.2899502801       -0.1318781106        0.4595470694
 H         -1.5771554999        3.4971483201       -1.0086368184
 H         -3.1018393898        4.3018272704       -1.4176158980
 H         -2.5195558098        2.2268626711       -2.7602024092
 H         -4.1320429599        2.2196014507       -2.0515767192
 O         -1.5845661199        0.3843989505       -1.7321036601
 C         -0.9731543800       -0.7606977598       -1.2671981207
 O          0.0667492800       -1.0796235695       -1.8774755809
 O         -3.2889820202       -1.5513434012        1.3899547887
 C         -0.8883081402       -2.6822617607        0.3372920782
 C          0.5350501298       -2.3690053610        0.7299821284
 C          1.5866974198       -3.2591658409        0.5472353980
 C          2.8760436298       -2.9100205312        0.9108118782
 C          3.1496630298       -1.6608636415        1.4372838690
 C          2.1035235099       -0.7670557615        1.6310412794
 C          0.8087192799       -1.1362836713        1.3085689391
 H          0.0100625599       -0.4271035314        1.4712704495
 N          2.3229921499        0.5371835482        2.1273246401
 S          2.0308600100        1.7797858588        1.0346762608
 O          2.4197208300        2.9898269584        1.7287071315
 O          0.6696278300        1.7199345791        0.5729125407
 C          3.1911782000        1.4552964995       -0.2812403393
 C          4.4243604801        2.0780548894       -0.2304049589
 C          5.3756605901        1.7658825999       -1.1872389090
 C          5.0833055201        0.8291108905       -2.1675976896
 C          3.8429827301        0.2116326605       -2.2018691500
 C          2.8821731000        0.5223583100       -1.2504947298
 H          1.9088251700        0.0556575901       -1.2662285602
 H          3.6070741901       -0.5171764390       -2.9606594804
 H          5.8248664701        0.5790165708       -2.9099002697
 H          6.3395197701        2.2482904099       -1.1634424187
 H          4.6042799900        2.7999931890        0.5500164715
 H          3.2446622199        0.6669763379        2.5235688102
 H          4.1591449298       -1.3760330616        1.6932122192
 H          3.6813158998       -3.6129435011        0.7624838379
 H          1.3962512898       -4.2271862007        0.1132650574
 H         -1.4490749402       -2.9522309912        1.2452677480
 C         -0.9947200701       -3.8200889802       -0.6581709324
 C         -1.1007565202       -5.2388403304       -0.1861035532
 C         -2.2951861102       -4.5547929200       -0.7777011529
 H         -2.6311361901       -4.8528917395       -1.7594789331
 H         -3.0942177002       -4.2526479404       -0.1163983328
 H         -0.6180091302       -6.0121328201       -0.7645361136
 H         -1.0964856903       -5.4138092010        0.8791465967
 H         -0.4465199401       -3.6213945397       -1.5724101423
