  62
        -98.94009864
 C          2.3292570690        0.4735127163        0.3447944535
 C          3.5124307247        0.5029008022        1.1277416860
 C          4.5045149538       -0.5433060324        0.8494250749
 C          4.2241902729       -1.4839062328       -0.0703896148
 C          5.1623455543       -2.5759760186       -0.4936745765
 C          6.0222534966       -2.1365661081       -1.6871330212
 C          6.6870544497       -0.7725253479       -1.5011156430
 H          7.2904074337       -0.5806439938       -2.3910290718
 H          5.9144116709       -0.0009011507       -1.4657140480
 C          7.5707424517       -0.6618853006       -0.2507036837
 H          8.5067335073       -0.1710559086       -0.5256945118
 H          7.8227971886       -1.6582398098        0.1141193961
 C          6.9582477401        0.1543148399        0.8891419047
 H          6.6212213932        1.1215779636        0.5072898314
 H          7.7414844145        0.3499748248        1.6263003435
 C          5.7885668569       -0.5067145910        1.6292656455
 H          6.0752008170       -1.5111196659        1.9474160251
 H          5.5798280200        0.0903129293        2.5219490002
 H          5.3856650151       -2.0888766457       -2.5737345720
 H          6.7876046251       -2.8955136461       -1.8591508966
 H          4.5698336223       -3.4450517448       -0.7841652710
 H          5.7991353332       -2.8465264876        0.3463695481
 O          3.0561454177       -1.5169829233       -0.7579678865
 C          2.0809685228       -0.5412365071       -0.5812873667
 O          1.0759488146       -0.7059806638       -1.2959187121
 O          3.7271917049        1.3654135223        2.0209622529
 C          1.2998299261        1.5602064383        0.6009818952
 C         -0.0685226537        0.9550343524        0.7808725113
 C         -0.3340601019        0.2258625230        1.9366383990
 C         -1.5708459485       -0.3563033184        2.1366368737
 C         -2.5696920414       -0.2268085312        1.1874529150
 C         -2.3159166211        0.4979539540        0.0316236184
 C         -1.0742578849        1.0902485699       -0.1621760565
 H         -0.8838008365        1.6338239242       -1.0746475590
 N         -3.3170863811        0.6145356416       -0.9452158388
 S         -4.8705004019        1.0316567892       -0.4818059031
 O         -5.4719465951        1.6198938344       -1.6589956570
 O         -4.8670003898        1.8477966467        0.7105420966
 C         -5.6564988865       -0.5309949548       -0.1500693724
 C         -5.6200734844       -1.4992850608       -1.1341186119
 C         -6.2363794559       -2.7174427919       -0.8970395535
 C         -6.8769453185       -2.9448011827        0.3120401661
 C         -6.9070963599       -1.9614142677        1.2888113098
 C         -6.2920600259       -0.7406576028        1.0579630031
 H         -6.2852061415        0.0509681624        1.7902976184
 H         -7.4054012830       -2.1402968007        2.2280822146
 H         -7.3549435543       -3.8944671176        0.4938152891
 H         -6.2140542085       -3.4848175414       -1.6540658813
 H         -5.1126318260       -1.2839398201       -2.0597445083
 H         -3.0280428000        1.1090941683       -1.7759343153
 H         -3.5354744380       -0.6823288155        1.3337840735
 H         -1.7602315789       -0.9199745020        3.0376295362
 H          0.4482178085        0.1170163383        2.6756262457
 H          1.6038196502        1.9970731028        1.5667922027
 C          1.3246288401        2.6976770558       -0.4093439969
 C          2.6153632096        3.1401654829       -1.0292100554
 C          1.5659083715        2.4839289283       -1.8726693675
 H          1.0188855719        3.0968955669       -2.5748391006
 H          1.7324541021        1.4744059321       -2.2141067586
 H          2.7923786917        4.1978610197       -1.1534757101
 H          3.5026950821        2.5738963909       -0.7862709978
 H          0.6238995984        3.4842780878       -0.1436804095
