  62
        -98.93331316
 C         -2.0972626147       -1.2422074756        0.1757614963
 C         -3.0395054686       -0.6546595566        1.0536858499
 C         -3.8973509322        0.4112565647        0.5036435425
 C         -3.6903147720        0.8245783502       -0.7591922479
 C         -4.4248802462        1.8836545037       -1.5419539748
 C         -4.7498569044        3.1912347462       -0.8033654403
 C         -6.2383807175        3.3631418929       -0.4944822629
 H         -6.4508200525        4.4289941496       -0.3856351617
 H         -6.8136980116        3.0022770838       -1.3495690042
 C         -6.7251785593        2.6636186604        0.7734821450
 H         -6.3392042553        3.1915401393        1.6482231403
 H         -7.8142322105        2.7461866551        0.7985497318
 C         -6.3425112095        1.1872334185        0.8933867537
 H         -7.0488430375        0.7134537139        1.5783047182
 H         -6.4476105210        0.6866926863       -0.0686097829
 C         -4.9287893936        0.9619918891        1.4504349109
 H         -4.5476867339        1.8893277963        1.8880547315
 H         -4.9665989638        0.2378587839        2.2702492752
 H         -4.1615024018        3.2576617652        0.1106685400
 H         -4.4415902575        4.0189826105       -1.4443295666
 H         -3.7839057361        2.0931282492       -2.4016256915
 H         -5.3436392635        1.4444131481       -1.9390623335
 O         -2.7254498698        0.2750729487       -1.5506758634
 C         -1.9124145811       -0.7640937080       -1.1218989222
 O         -1.0909263958       -1.1454045811       -1.9751208745
 O         -3.1621435348       -1.0055640012        2.2586726869
 C         -1.2183471332       -2.3534171270        0.7222904773
 C          0.2266989027       -2.0772753359        0.3894716755
 C          1.0357289806       -2.9440325948       -0.3319749437
 C          2.3479739542       -2.6047000280       -0.6132071581
 C          2.8818080966       -1.4047530089       -0.1818104043
 C          2.0794611169       -0.5271574391        0.5359682797
 C          0.7688904621       -0.8731805171        0.8231213878
 H          0.1416337837       -0.1852037854        1.3782687944
 N          2.6119947007        0.6934773450        0.9882063567
 S          3.4470601458        1.6551924409       -0.1066393840
 O          3.3372621428        2.9987912079        0.4209995533
 O          2.9859537045        1.4576671623       -1.4609461145
 C          5.1342180228        1.1084952466        0.0556022435
 C          5.7003733490        1.1059019785        1.3154840442
 C          7.0153477734        0.6926094547        1.4570050837
 C          7.7389715025        0.2945397579        0.3426400929
 C          7.1571925002        0.3059276597       -0.9157397286
 C          5.8415081970        0.7171259692       -1.0641289625
 H          5.3448791451        0.7367651885       -2.0213615774
 H          7.7207795719       -0.0036732930       -1.7811632696
 H          8.7624262323       -0.0264987449        0.4554684368
 H          7.4708733908        0.6820761456        2.4340590948
 H          5.1049599675        1.4258778583        2.1540979796
 H          1.9530426127        1.2509493436        1.5126568110
 H          3.9002892628       -1.1343209362       -0.4078725370
 H          2.9635496192       -3.2845867743       -1.1822754221
 H          0.6323139517       -3.8731960860       -0.6988239631
 H         -1.3319994289       -2.2737632838        1.8167772462
 C         -1.6716355453       -3.7553909463        0.3447159292
 C         -3.1094541014       -4.0453841699        0.0368996750
 C         -2.0811032034       -4.1203908868       -1.0495755258
 H         -1.8052878459       -5.0949902161       -1.4252246829
 H         -2.0591337533       -3.3426372828       -1.7965485464
 H         -3.5378792838       -4.9646906034        0.4070194946
 H         -3.7983870175       -3.2131143397        0.0319757607
 H         -1.1415690760       -4.5157240341        0.9100059157
