  62
        -98.93829212
 C          2.2428073069        1.2668826760        0.2163560233
 C          2.3194686178        0.1175370855       -0.6025583802
 C          3.1468145448       -1.0034761738       -0.1078557846
 C          3.7739335841       -0.8816030695        1.0762084093
 C          4.6884942236       -1.8641210415        1.7579702639
 C          6.0874103658       -1.9135740452        1.1225545751
 C          6.1000911457       -1.9363903064       -0.4034938307
 H          5.5799164235       -1.0536176546       -0.7794393483
 H          7.1412970639       -1.8626199740       -0.7280010085
 C          5.5003930890       -3.1877923286       -1.0401120942
 H          6.0448920882       -4.0663386056       -0.6871089085
 H          5.6579269884       -3.1107989366       -2.1189267977
 C          4.0066351587       -3.4121988454       -0.7950650409
 H          3.6724144945       -4.1816209667       -1.4974983005
 H          3.8250759349       -3.8072254274        0.2009174061
 C          3.1289403116       -2.1893177963       -1.0428074985
 H          3.3422758187       -1.7919994089       -2.0418550141
 H          2.0811971929       -2.5150244429       -1.0801110710
 H          6.6089810643       -2.7917047809        1.5067495198
 H          6.6360467221       -1.0258837945        1.4463132171
 H          4.7885088577       -1.5303535955        2.7931607855
 H          4.2326975177       -2.8497931720        1.7717769715
 O          3.6766093962        0.2491022382        1.8316848435
 C          2.9128719177        1.3278737698        1.4419190368
 O          2.9119765259        2.2760392064        2.2522287315
 H         -0.2977116570        0.9559384699       -1.6127945131
 C         -0.7727361060        1.3368128679       -0.7216066970
 C         -0.0528365861        2.1508865391        0.1410713761
 C         -0.6695429600        2.5928886059        1.3065379903
 C         -1.9719639434        2.2276038407        1.5973760075
 C         -2.6809289250        1.4039778554        0.7405590410
 C         -2.0683654687        0.9472959957       -0.4183437601
 N         -2.7691678921        0.0726764113       -1.2762368725
 S         -3.2236751816       -1.3952600969       -0.5868188181
 O         -2.3411969003       -1.7685965135        0.4959200722
 O         -3.3227213623       -2.3272793898       -1.6891885806
 C         -4.8581705732       -1.0708218845        0.0418005101
 C         -5.1193421585       -1.2114470811        1.3905601168
 C         -6.3997221840       -0.9533028354        1.8554158290
 C         -7.3903613925       -0.5618350544        0.9678465046
 C         -7.1123104464       -0.4280309757       -0.3844894123
 C         -5.8349406907       -0.6855215635       -0.8556813126
 H         -5.5768800021       -0.5994432278       -1.8978842831
 H         -7.8856427648       -0.1243228669       -1.0714592315
 H         -8.3851842675       -0.3603822808        1.3325331889
 H         -6.6175399723       -1.0576546425        2.9062250126
 H         -4.3151877518       -1.5128365536        2.0429448995
 H         -2.2655863335       -0.1079964798       -2.1345123477
 H         -3.6914200449        1.1047682389        0.9671279176
 H         -2.4375604512        2.5813244560        2.5046590333
 H         -0.1082863824        3.2084671182        1.9950862513
 C          1.3946164141        2.4826212782       -0.1318919340
 H          1.6991534732        3.2660016328        0.5745145295
 C          1.6264509022        2.9898660992       -1.5405257712
 C          1.1886440985        4.3795019322       -1.8897726464
 C          2.6480876543        4.0605904793       -1.7719757110
 H          3.2430549445        4.0179182665       -2.6719773413
 H          3.1850977996        4.4335402220       -0.9118487534
 H          0.7790027477        4.5590467986       -2.8718355008
 H          0.7350776819        4.9700189660       -1.1081891115
 H          1.5345622063        2.2247012649       -2.2996477663
 O          1.7394065185        0.0007498023       -1.7167147484
