  62
        -98.93248490
 C          2.6002234039        1.1953567551        0.1966778419
 C          3.0483664291        0.2282247102        1.1300162597
 C          4.2805211216       -0.5077807517        0.8007131048
 C          4.9136480209       -0.2409580220       -0.3566883113
 C          6.1991353588       -0.7868381406       -0.9428097654
 C          6.8622987431       -2.0269451995       -0.3498042504
 C          6.0827539948       -3.3260003426       -0.5533149134
 H          6.1195795536       -3.5890962693       -1.6134556852
 H          6.5869678036       -4.1188116714        0.0034937657
 C          4.6132637630       -3.2857778520       -0.1414202949
 H          4.0803438755       -2.5537639847       -0.7517252145
 H          4.1778789823       -4.2645503658       -0.3603568521
 C          4.3550237964       -2.9831788967        1.3330866247
 H          4.9045424408       -3.6917625391        1.9559671897
 H          3.2876916960       -3.1324166745        1.5176971793
 C          4.7070862137       -1.5565324878        1.7872490160
 H          4.1558889823       -1.3502734171        2.7094699417
 H          5.7667143123       -1.4640366456        2.0133386542
 H          7.8249733640       -2.1377212387       -0.8563952952
 H          7.0780772769       -1.8706020638        0.7030390251
 H          5.9923473000       -0.9632269128       -2.0032045742
 H          6.9155263150        0.0412549380       -0.9038063260
 O          4.4440136681        0.6976763550       -1.2275833401
 C          3.2859481067        1.4276930270       -0.9949438081
 O          3.0063244653        2.2204491841       -1.9113768178
 H         -0.8770092666        1.2446997407        1.9145055903
 C         -0.9515680765        0.9913132270        0.8653511870
 C          0.1108476127        1.2755920973        0.0201382042
 C          0.0066173331        0.9267610762       -1.3227819347
 C         -1.1379043512        0.3134870292       -1.7992051856
 C         -2.1952451433        0.0304251983       -0.9518266087
 C         -2.1007714656        0.3709068496        0.3904992964
 N         -3.1608625302        0.0696771806        1.2592393791
 S         -4.7256438507        0.4624885866        0.7986840756
 O         -4.7433730347        1.6071331175       -0.0816426846
 O         -5.4593453419        0.5923935516        2.0383457457
 C         -5.2967384727       -0.9857794811       -0.0644548803
 C         -5.1963019001       -2.2068278360        0.5731300244
 C         -5.6511092576       -3.3413732298       -0.0794814162
 C         -6.1985298779       -3.2360652175       -1.3495949732
 C         -6.2947631993       -2.0024671455       -1.9749589568
 C         -5.8406637245       -0.8635737083       -1.3279786377
 H         -5.8902158594        0.1153885523       -1.7777680012
 H         -6.7205340766       -1.9228912590       -2.9623228598
 H         -6.5520532113       -4.1208827584       -1.8550424014
 H         -5.5772597255       -4.3026288358        0.4031634735
 H         -4.7669869161       -2.2466477268        1.5603518373
 H         -2.9888845754        0.3183385857        2.2225011170
 H         -3.0876882993       -0.4477781919       -1.3211479655
 H         -1.2073936189        0.0508371274       -2.8440178652
 H          0.8291042102        1.1476555755       -1.9865459699
 C          1.3404279897        1.9586829987        0.5621393593
 H          1.2902203812        1.8966264197        1.6612497975
 C          1.4049775861        3.4362240045        0.2012012728
 C          0.6005823781        4.0666038737       -0.8912612546
 C          0.2579439961        4.3423796576        0.5401762286
 H          0.4702631542        5.3186929401        0.9487313859
 H         -0.6392506303        3.8853331249        0.9315995597
 H          1.0738021775        4.8414580746       -1.4745487691
 H         -0.0683456896        3.4427898913       -1.4625044479
 H          2.4009538406        3.8409625783        0.3513203688
 O          2.4461346235       -0.0006848672        2.2143058113
