  62
        -98.94032657
 C         -2.0570594226       -0.4245629740        0.1637258680
 C         -2.7497817357        0.7663651991        0.5023402915
 C         -4.0855819958        0.9376811676       -0.0814259446
 C         -4.5645019210       -0.0103186091       -0.9071610875
 C         -5.9254525055        0.0078179228       -1.5392791100
 C         -6.9567955994       -0.7129939455       -0.6601809285
 C         -6.9387298245       -0.2680946426        0.8021718390
 H         -7.7275707123       -0.8182795774        1.3196337816
 H         -5.9896246300       -0.5659145760        1.2536027131
 C         -7.1458488061        1.2387933197        1.0093179265
 H         -7.5795075953        1.6803744915        0.1113494131
 H         -7.8619354188        1.3860350214        1.8206060522
 C         -5.8781744791        2.0064407602        1.3893046627
 H         -5.3889308292        1.5115616425        2.2321034591
 H         -6.1728586778        3.0049852645        1.7231416474
 C         -4.8447571551        2.1861025498        0.2699359863
 H         -5.3301311176        2.6031782700       -0.6150239730
 H         -4.0961485513        2.9029275649        0.6202148065
 H         -7.9490395150       -0.5429083850       -1.0819816423
 H         -6.7519668499       -1.7855083465       -0.6947073056
 H         -6.2296891926        1.0397858909       -1.7035300850
 H         -5.8635270306       -0.5008977578       -2.5028072450
 O         -3.8678289887       -1.1276690761       -1.2265393926
 C         -2.6003566181       -1.3711474062       -0.7065240724
 O         -2.0992870701       -2.4389279470       -1.1000947399
 H          1.3039044575        1.0906277178        1.4764865373
 C          1.3483451024        0.8298140900        0.4277636393
 C          0.3876647778       -0.0161791729       -0.1070124514
 C          0.4522396303       -0.3281281701       -1.4611400726
 C          1.4469389792        0.2079067731       -2.2587470865
 C          2.4023451880        1.0529886235       -1.7221170224
 C          2.3543501739        1.3606338642       -0.3692622878
 N          3.3569509085        2.1808676965        0.1839279990
 S          4.9329671443        1.6440830243       -0.0392873271
 O          5.6955421072        2.2327596031        1.0378982398
 O          5.3639842057        1.9687470419       -1.3749054707
 C          4.8090010403       -0.1240680308        0.1575743163
 C          4.7793005290       -0.9389187249       -0.9558517460
 C          4.5671140245       -2.2976604349       -0.7850369559
 C          4.3885530876       -2.8151575807        0.4881299225
 C          4.4346222530       -1.9852935786        1.5978768081
 C          4.6397352321       -0.6252838508        1.4332369617
 H          4.6823587131        0.0515184333        2.2718660224
 H          4.3014218350       -2.3933747072        2.5867990377
 H          4.2102937982       -3.8706046827        0.6176797061
 H          4.5333300129       -2.9460124803       -1.6457621771
 H          4.9246362950       -0.4990038826       -1.9285318849
 H          3.1987792455        2.4108986303        1.1546915954
 H          3.1867457244        1.4770047211       -2.3279599788
 H          1.4806019496       -0.0375137588       -3.3093763209
 H         -0.2816624928       -1.0006572625       -1.8785352334
 C         -0.6812837220       -0.6016603869        0.7800123367
 H         -0.7103904839        0.0036941129        1.7000784573
 C         -0.3753911353       -2.0364372812        1.1894443770
 C          0.6748924965       -2.8780153528        0.5346635976
 C          0.8992364754       -2.3480890804        1.9167041124
 H          0.8644992731       -3.0329211311        2.7500663080
 H          1.6138838205       -1.5465274271        2.0287264230
 H          0.4601185981       -3.9273538402        0.4053046448
 H          1.2458402946       -2.4480357572       -0.2731465451
 H         -1.2659543840       -2.5582702931        1.5237472783
 O         -2.2682457381        1.6451340513        1.2682464011
