  62
        -98.94454590
 C         -1.3879985752       -1.4573462537        0.4318942945
 C         -1.7237248163       -0.4226205793        1.3415754384
 C         -2.8207278404        0.4678811912        0.9459009445
 C         -3.4251499469        0.2763555291       -0.2398521471
 C         -4.5407078744        1.1202765633       -0.7829431555
 C         -4.0088890660        2.2586314221       -1.6636089330
 C         -2.8831388128        3.0721846872       -1.0237102990
 H         -1.9837362050        2.4560895557       -0.9407590713
 H         -2.6385928447        3.8834299886       -1.7138333749
 C         -3.2230767384        3.6623465348        0.3520509925
 H         -2.8637085747        4.6931776213        0.3832470148
 H         -4.3051800364        3.6901915556        0.4887193125
 C         -2.5765439738        2.9322007175        1.5309141809
 H         -1.5126891032        2.7895838992        1.3201081696
 H         -2.6547053870        3.5730141918        2.4135712519
 C         -3.1911630300        1.5734561702        1.8930122044
 H         -2.7981097105        1.2781356587        2.8703009362
 H         -4.2759946792        1.6698661020        1.9733231064
 H         -3.6305781702        1.8300924889       -2.5947231084
 H         -4.8421242569        2.9208944758       -1.9078122061
 H         -5.1897941669        0.4825341374       -1.3860635123
 H         -5.1164375412        1.5271731570        0.0462616280
 O         -3.0560007431       -0.7015084184       -1.1040787440
 C         -1.9954258138       -1.5539554549       -0.8214091601
 O         -1.7156573884       -2.3297695265       -1.7538661781
 O         -1.1212973204       -0.2455192414        2.4352661678
 C         -0.1959444721       -2.3310330054        0.7818879714
 C          0.8603694625       -2.1920195074       -0.2872266704
 C          1.5761005927       -3.2463798899       -0.8373463363
 C          2.5439203794       -3.0023344168       -1.7980936304
 C          2.8315885239       -1.7156958305       -2.2162977748
 C          2.1169783702       -0.6534611461       -1.6724018443
 C          1.1473403527       -0.9039172165       -0.7184625694
 H          0.5758556586       -0.0785865785       -0.3251976596
 N          2.3507896841        0.6704469287       -2.0677060048
 S          2.0801191807        1.9315880778       -1.0072743665
 O          0.6673342831        2.1443155534       -0.8168697292
 O          2.8107341994        3.0390889665       -1.5865805951
 C          2.8662842445        1.4333345628        0.5151407505
 C          2.1234553140        1.1406717553        1.6400313124
 C          2.7806729781        0.7184766211        2.7855493360
 C          4.1610904449        0.5986238501        2.7883001671
 C          4.8955699301        0.9058128393        1.6524763425
 C          4.2441119834        1.3246557145        0.5047764966
 H          4.7802711564        1.5838039880       -0.3936987171
 H          5.9699159519        0.8170101833        1.6584389080
 H          4.6660264177        0.2664027369        3.6815753776
 H          2.2004008346        0.4799460398        3.6627549633
 H          1.0484063534        1.2328613066        1.6172949048
 H          3.1554646952        0.8187265179       -2.6570267189
 H          3.5864354837       -1.5333595454       -2.9655031688
 H          3.0872807160       -3.8306283699       -2.2269819174
 H          1.3652542743       -4.2581851723       -0.5324949969
 H          0.2105485160       -1.8602884587        1.6944309735
 C         -0.5153471915       -3.7698038557        1.1565109360
 C         -1.9004520308       -4.1845241597        1.5516633208
 C         -1.3044000714       -4.6870867198        0.2726305810
 H         -1.0085556952       -5.7249571376        0.2208503172
 H         -1.6731793020       -4.2864647326       -0.6576830147
 H         -2.0165033327       -4.8723418404        2.3760125964
 H         -2.6819619866       -3.4406423624        1.4882112469
 H          0.2929947929       -4.2261515455        1.7199597120
