  62
        -98.93606358
 C         -1.5059653168       -1.2765073323        0.3778382568
 C         -2.0305882934       -0.3347499139        1.2978895678
 C         -3.3888185086        0.1464137352        1.0274915460
 C         -4.0606244560       -0.3227315315       -0.0396821585
 C         -5.4673537962        0.0413933693       -0.4309533333
 C         -5.5747713496        1.3331233298       -1.2524404364
 C         -5.3345157412        2.6236208626       -0.4681196257
 H         -5.6496939316        3.4510244996       -1.1068803283
 H         -5.9715068831        2.6345054406        0.4168653221
 C         -3.8732648718        2.8499983088       -0.0549740800
 H         -3.2198053250        2.2055414830       -0.6483394904
 H         -3.5851549897        3.8804045048       -0.2762075226
 C         -3.5871450401        2.6105911125        1.4276987660
 H         -2.5171068155        2.7621451129        1.5955949501
 H         -4.1286349883        3.3448865606        2.0286448791
 C         -3.9544562974        1.2057861143        1.9242173878
 H         -5.0371881075        1.1050980132        1.9985907869
 H         -3.5198260060        1.0693256277        2.9175258651
 H         -4.8700370969        1.2774583209       -2.0853391790
 H         -6.5830822031        1.3703374514       -1.6711749421
 H         -6.0855247422        0.1254280852        0.4632950485
 H         -5.8435164821       -0.7843909025       -1.0385819695
 O         -3.5254518027       -1.2290705236       -0.8974525531
 C         -2.2313356996       -1.7118257540       -0.7319712837
 O         -1.8743378977       -2.5030593133       -1.6214312467
 O         -1.3934092095        0.0767194122        2.3056682791
 C         -0.0861025244       -1.7743351788        0.6160379798
 C          0.7519802525       -1.4643039769       -0.5986109700
 C          1.1199824669       -2.3441550892       -1.6092425340
 C          1.8773516513       -1.9054385886       -2.6825209872
 C          2.3017482515       -0.5932582683       -2.7729150154
 C          1.9226000655        0.3042289454       -1.7816951225
 C          1.1491086307       -0.1349701453       -0.7200593332
 H          0.8311770224        0.5833757450        0.0213589939
 N          2.3266958643        1.6478942215       -1.8246481687
 S          2.7387633214        2.4081321441       -0.3921567707
 O          1.5537823067        2.8491050567        0.2995551999
 O          3.6579956208        3.4529513957       -0.7918857774
 C          3.5996655389        1.1647793021        0.5553140182
 C          3.0624415289        0.6896990881        1.7339675485
 C          3.7299446725       -0.3149935528        2.4168784241
 C          4.9165374839       -0.8233697493        1.9124944758
 C          5.4497840151       -0.3274084856        0.7324333233
 C          4.7858561574        0.6745639091        0.0444405604
 H          5.1739220011        1.0892096444       -0.8717156157
 H          6.3756755182       -0.7213993932        0.3456907429
 H          5.4283655376       -1.6097317343        2.4442397939
 H          3.3136179169       -0.6997379279        3.3341607584
 H          2.1334812733        1.1040170957        2.0943907720
 H          2.9688807927        1.8740702642       -2.5698419732
 H          2.9023293711       -0.2610038813       -3.6055971735
 H          2.1463759610       -2.6049397252       -3.4594332276
 H          0.7938870286       -3.3677005350       -1.5929784618
 H          0.2882102734       -1.1158560303        1.4169009365
 C         -0.0937211451       -3.1674528205        1.2285765679
 C         -0.3947431550       -4.4435978596        0.5047497156
 C          0.9862261958       -4.1876058978        1.0317314757
 H          1.3098753334       -4.7524517214        1.8932978180
 H          1.7757550052       -3.9627926886        0.3332320623
 H         -1.0087038298       -5.1709326531        1.0173758426
 H         -0.5922712093       -4.3974046826       -0.5533788563
 H         -0.5073581503       -3.1061768296        2.2329035212
