  62
        -98.93286483
 C         -0.9264483060       -1.5203424689       -0.3170667853
 C         -1.9975037742       -1.5886649918        0.6117386194
 C         -3.1480791300       -0.7057816535        0.3679096975
 C         -3.1225360509        0.1129831600       -0.6992558999
 C         -4.2149680987        1.0644265955       -1.1026821583
 C         -4.2322033814        2.3129476345       -0.1991270677
 C         -5.4843784199        2.4472312302        0.6667836981
 H         -5.2969196415        3.2417812060        1.3923557484
 H         -6.3203115408        2.7647069113        0.0399998404
 C         -5.9111979368        1.1799950035        1.4133635478
 H         -6.4528516314        0.5191831941        0.7348676737
 H         -6.6232736383        1.4862186868        2.1826778348
 C         -4.7806413192        0.3816277282        2.0760953664
 H         -3.9201724740        1.0208550597        2.2737916081
 H         -5.1389367411        0.0267904280        3.0447483552
 C         -4.3286090619       -0.8605958798        1.2874994748
 H         -4.0251393260       -1.6343998309        1.9992845832
 H         -5.1763190012       -1.2575865685        0.7207520259
 H         -4.1494685450        3.2107093972       -0.8135498141
 H         -3.3524717980        2.2867450392        0.4446267091
 H         -4.0251844710        1.3473909092       -2.1383445526
 H         -5.1737063168        0.5512246817       -1.0564104988
 O         -2.0544655962        0.1961494165       -1.5308170006
 C         -0.9374565609       -0.6113573601       -1.3760979840
 O         -0.0603864387       -0.4135911988       -2.2377363397
 H          1.7794538507       -0.5002543821       -0.9726056945
 C          2.1764235645       -1.0196070756       -0.1144094249
 C          1.4565844435       -2.0641643787        0.4523053815
 C          1.9897545243       -2.7180032509        1.5579871740
 C          3.2236501341       -2.3590719609        2.0700552044
 C          3.9476341845       -1.3354002410        1.4869545032
 C          3.4149310575       -0.6606037754        0.3968322374
 N          4.1152741890        0.4158298103       -0.2128187948
 S          3.6785390353        1.9182303718        0.4002763618
 O          4.6075843178        2.8605618041       -0.1833689362
 O          3.6570066730        1.8832723904        1.8492275501
 C          2.0384363029        2.2154870049       -0.2056792793
 C          0.9698278769        1.9525153370        0.6268303977
 C         -0.3090135874        2.2293294246        0.1772613175
 C         -0.4982380245        2.7583263506       -1.0895802786
 C          0.5855182708        3.0022716298       -1.9179142034
 C          1.8690975201        2.7300101465       -1.4746967519
 H          2.7394971498        2.9139248493       -2.0830464459
 H          0.4310084207        3.3991411789       -2.9082947803
 H         -1.4975246460        2.9676847190       -1.4365485917
 H         -1.1521192168        2.0174973090        0.8170674655
 H          1.1564798353        1.5423927824        1.6068783593
 H          5.1199844436        0.3262300152       -0.1288339746
 H          4.9136152380       -1.0485546987        1.8755401882
 H          3.6253079087       -2.8810457957        2.9252996313
 H          1.4278409840       -3.5176314682        2.0185055684
 C          0.1688630683       -2.5593698031       -0.1600263299
 H         -0.2538291036       -3.3040676890        0.5284197426
 C          0.4888578057       -3.2544168805       -1.4731578323
 C          1.0609178165       -4.6383883116       -1.4495009417
 C         -0.3475140770       -4.4167142603       -1.9121790781
 H         -0.5717953604       -4.5221618309       -2.9629705622
 H         -1.1528113164       -4.7260578019       -1.2616508379
 H          1.8087252221       -4.8981814832       -2.1828213353
 H          1.2099454361       -5.1033113235       -0.4868260450
 H          0.8414749602       -2.5750387138       -2.2382960064
 O         -2.0040293019       -2.3847977749        1.5900827080
