  62
        -98.94705461
 C         -1.5170661476       -1.0668280776        0.0844822902
 C         -2.5326481517       -0.6134799786        0.9565908194
 C         -3.1130485542        0.6973847397        0.6410963825
 C         -2.6268760541        1.3976763592       -0.4006187914
 C         -3.1525031994        2.7273853377       -0.8569393558
 C         -4.2538454840        2.5608261915       -1.9133873477
 C         -5.3411194783        1.5613476939       -1.5184679547
 H         -6.0787830570        1.5483133587       -2.3235455524
 H         -4.9032086525        0.5620660346       -1.4656535325
 C         -6.0404792506        1.8777672025       -0.1891969153
 H         -5.8637111516        2.9186803234        0.0839091295
 H         -7.1173947317        1.7551684913       -0.3216631052
 C         -5.6295748785        0.9732352192        0.9739707629
 H         -5.7155095011       -0.0735520758        0.6720868034
 H         -6.3315400369        1.1359406465        1.7961291223
 C         -4.2173547365        1.1988958028        1.5291767326
 H         -4.0752243236        2.2572046118        1.7594393853
 H         -4.1319450845        0.6320059756        2.4613181273
 H         -4.7038146200        3.5379310994       -2.0982651470
 H         -3.7924221664        2.2173388108       -2.8419741602
 H         -3.5370434768        3.2731099269        0.0027934105
 H         -2.3228521458        3.2909855532       -1.2877014238
 O         -1.6230282217        0.9476448250       -1.1929952423
 C         -1.0320783858       -0.2829138591       -0.9634948321
 O         -0.1107094920       -0.5678646061       -1.7520710538
 H          0.3028935380       -0.5413405183        1.8267604026
 C          1.0414757372       -1.1585280480        1.3291093000
 C          0.6219569656       -2.2127857524        0.5263275584
 C          1.5887297607       -2.9906031385       -0.0974458204
 C          2.9335984065       -2.6933341354        0.0459576946
 C          3.3406276451       -1.6039645972        0.7944735983
 C          2.3814971592       -0.8366389964        1.4408216434
 N          2.7969675299        0.3425281858        2.1303056249
 S          2.5633761472        1.6901521726        1.1323095043
 O          3.0897396635        2.8199450288        1.8703782821
 O          1.1776188150        1.8144600864        0.7295610090
 C          3.6102440986        1.3116108109       -0.2509671875
 C          4.9543873846        1.6156670252       -0.1509076516
 C          5.7973963785        1.2733691163       -1.1953212271
 C          5.2837011425        0.6300415579       -2.3118076573
 C          3.9325187336        0.3309529485       -2.3937791037
 C          3.0805063610        0.6718096370       -1.3540137745
 H          2.0254963986        0.4428389556       -1.3885737465
 H          3.5290199266       -0.1733695262       -3.2570565786
 H          5.9398786156        0.3579859122       -3.1235395665
 H          6.8487123527        1.5042959697       -1.1346922479
 H          5.3028427853        2.1157753755        0.7377390950
 H          2.2699589065        0.4989535355        2.9805564753
 H          4.3808486827       -1.3364313073        0.8821103107
 H          3.6711671112       -3.3029861612       -0.4522259841
 H          1.2864194604       -3.8218102486       -0.7132798137
 C         -0.8617041227       -2.4120654749        0.3464560474
 H         -1.2887569964       -2.7688186712        1.2957942644
 C         -1.2121906113       -3.3957306171       -0.7501858274
 C         -1.2737732524       -4.8646985140       -0.4584581979
 C         -2.5364925868       -4.0948419869       -0.6986636662
 H         -3.0724258792       -4.2530252056       -1.6224550221
 H         -3.1762498445       -3.8801967175        0.1450243311
 H         -0.9455070401       -5.5557946697       -1.2198659275
 H         -1.0604939164       -5.1834132523        0.5505201068
 H         -0.8513583863       -3.0777987862       -1.7220695709
 O         -2.9285904202       -1.2723295647        1.9584832560
