  62
        -98.93801870
 C         -0.7066046142       -1.4748806739        0.4751657488
 C         -1.4082734777       -0.4335649361        1.1308551138
 C         -2.3396810096        0.3515285913        0.3076507510
 C         -2.4313512012        0.0846495669       -1.0075520306
 C         -3.3768836643        0.7515077927       -1.9663905819
 C         -4.7987785323        0.1808051904       -1.7899434205
 C         -5.8237110717        1.1888441644       -1.2690049644
 H         -6.1034843817        1.8615541324       -2.0824676550
 H         -6.7161463076        0.6281653822       -0.9831315802
 C         -5.3731078000        2.0484845832       -0.0840422970
 H         -6.2709062023        2.5096544810        0.3327937438
 H         -4.7421786843        2.8634482095       -0.4421701607
 C         -4.6321406198        1.3098522446        1.0379384106
 H         -4.9630526010        1.7237253883        1.9925160439
 H         -4.8962135315        0.2521766463        1.0414899169
 C         -3.0992058087        1.4528550137        0.9954788985
 H         -2.8365330670        2.4151287392        0.5459264013
 H         -2.7207572133        1.4491010498        2.0221603057
 H         -5.1551335895       -0.2068446496       -2.7455233074
 H         -4.7429866347       -0.6702322439       -1.1077328335
 H         -3.0066178728        0.5554504215       -2.9732169712
 H         -3.3706830985        1.8268424851       -1.8002216734
 O         -1.7137467325       -0.8952787418       -1.6116383203
 C         -0.8143634561       -1.6796401725       -0.9023103065
 O         -0.2072994719       -2.5085290179       -1.6051787697
 O         -1.2536747006       -0.1632437938        2.3524283795
 C          0.3129389588       -2.2531989043        1.2909186732
 C          1.6412435200       -2.1926834595        0.5798989356
 C          2.4044236911       -3.2989642339        0.2354344076
 C          3.5850741324       -3.1363358889       -0.4699759518
 C          4.0130040638       -1.8821220204       -0.8640299144
 C          3.2568806050       -0.7674354380       -0.5176874181
 C          2.1042569325       -0.9303300529        0.2287338247
 H          1.5199813743       -0.0632204104        0.4998152101
 N          3.6429151416        0.5280199436       -0.8952203633
 S          2.4660047754        1.6496064646       -1.3016693881
 O          1.3104079990        1.0399456187       -1.9172154154
 O          3.1731929367        2.6253784728       -2.1066254540
 C          2.0263860862        2.4058682172        0.2485368146
 C          3.0368973469        2.9082064248        1.0446537319
 C          2.7031420050        3.5111288420        2.2465167756
 C          1.3730074982        3.6020354364        2.6287148780
 C          0.3698505189        3.0979328038        1.8157128013
 C          0.6976718245        2.4948531754        0.6120106061
 H         -0.0521675014        2.0738053109       -0.0416281116
 H         -0.6638563768        3.1566445134        2.1158692633
 H          1.1131831418        4.0668404735        3.5666315269
 H          3.4791173752        3.9048546985        2.8829334739
 H          4.0569837866        2.8182832019        0.7107915468
 H          4.4361229233        0.5725759151       -1.5183849402
 H          4.9158573898       -1.7634296621       -1.4436927338
 H          4.1687558672       -4.0037997160       -0.7390000588
 H          2.0637627304       -4.2887982410        0.4911910569
 H          0.4045298570       -1.6728475462        2.2250320041
 C         -0.1100409134       -3.6555336045        1.6971193545
 C         -1.5589310536       -4.0285283774        1.7871107099
 C         -0.6928174432       -4.6387493607        0.7282850487
 H         -0.4192064262       -5.6789853793        0.8301581468
 H         -0.8198608565       -4.3174545756       -0.2931365823
 H         -1.8814637773       -4.6463013621        2.6117609988
 H         -2.2840149985       -3.2863294717        1.4853703047
 H          0.5358686290       -4.0630451546        2.4689503139
