  62
        -98.94081116
 C         -2.5951624601       -1.3204329310        0.2263750146
 C         -2.3962255963       -0.2361116765       -0.6657127672
 C         -3.5001402712        0.7357093781       -0.7502131313
 C         -4.6114794129        0.5484617481       -0.0173730639
 C         -5.7821163278        1.4860197997        0.0284779581
 C         -5.6206510725        2.5177151808        1.1536548113
 C         -4.2574809803        3.2098584993        1.1670503173
 H         -4.2704223518        3.9381478958        1.9807798393
 H         -3.4844218295        2.4756802949        1.4061835236
 C         -3.8914771502        3.9175594157       -0.1450565443
 H         -3.4800615861        4.9013412780        0.0903394205
 H         -4.7891929096        4.0765070040       -0.7437390938
 C         -2.8434387773        3.1892515387       -0.9890538145
 H         -2.5030789854        3.8720908100       -1.7724847956
 H         -1.9741440041        2.9473136444       -0.3711568605
 C         -3.3172782615        1.9034749559       -1.6783778375
 H         -4.2350715129        2.1014269141       -2.2361790433
 H         -2.5402435734        1.6051718479       -2.3887132764
 H         -5.7552906002        2.0094742719        2.1111990404
 H         -6.4089982416        3.2656068567        1.0516840653
 H         -5.8754873416        1.9903781673       -0.9312455115
 H         -6.6847676421        0.9005885461        0.2112261780
 O         -4.7724497635       -0.5092561559        0.8172674812
 C         -3.7673101804       -1.4469926757        0.9794435006
 O         -4.0333114505       -2.3372071742        1.8110573136
 H          0.5945870238       -1.9746324442       -1.1967444528
 C          0.7645126710       -1.5687916687       -0.2117379216
 C         -0.2129853640       -1.7001280657        0.7605924772
 C          0.0091867100       -1.1351502635        2.0126672445
 C          1.1856200911       -0.4618696970        2.2832558625
 C          2.1580073987       -0.3270812696        1.3075761614
 C          1.9354522505       -0.8685734785        0.0489961812
 N          2.9088641324       -0.7279763783       -0.9532038074
 S          3.6827936400        0.7481143643       -1.1392337240
 O          2.8559461600        1.8596383078       -0.7314720499
 O          4.1453981036        0.7580497192       -2.5104104396
 C          5.0948504759        0.6117790794       -0.0600386221
 C          5.3758123166        1.6241005015        0.8364099863
 C          6.4864903538        1.5047715618        1.6574333416
 C          7.2934697829        0.3811777221        1.5672773378
 C          6.9995283951       -0.6257282634        0.6598597390
 C          5.8915379051       -0.5116900475       -0.1643430893
 H          5.6306296996       -1.2701116604       -0.8832700168
 H          7.6293018758       -1.4981943189        0.5927626950
 H          8.1562200555        0.2897526413        2.2080684751
 H          6.7161450103        2.2870883071        2.3629973566
 H          4.7164165599        2.4767630313        0.8761415485
 H          2.6184887741       -1.0941917988       -1.8484781127
 H          3.0698553691        0.2119882340        1.5061883030
 H          1.3465042779       -0.0318297984        3.2602950056
 H         -0.7594353968       -1.2219839948        2.7688326252
 C         -1.5307828814       -2.3770805669        0.4805861629
 H         -1.8538814906       -2.8841473455        1.4036001087
 C         -1.4310198977       -3.4543389000       -0.5892310339
 C         -2.6726533753       -4.0230996498       -1.2071141427
 C         -1.7271691461       -3.2101878269       -2.0369957606
 H         -1.1237053569       -3.7227136024       -2.7725390607
 H         -2.0236106135       -2.2171146644       -2.3349309804
 H         -2.7247816873       -5.0879824149       -1.3761649788
 H         -3.6152353956       -3.5780113265       -0.9226922455
 H         -0.6347055671       -4.1596668496       -0.3706102542
 O         -1.3664830243       -0.0721113552       -1.3706203435
