  62
        -98.94299021
 C         -0.2605186151       -1.9558698073        0.2773487353
 C          0.8920873065       -2.4339065359       -0.3865925637
 C          2.1709449979       -1.8637637363        0.0539349968
 C          2.1876210598       -0.9674291563        1.0565060763
 C          3.4056105733       -0.2864175078        1.6208475607
 C          4.1145107828        0.6900465436        0.6602440552
 C          5.3048244043        0.0784216710       -0.0894462909
 H          6.1096589770        0.8151147776       -0.1326919157
 H          5.6845696573       -0.7690966592        0.4829075593
 C          5.0243336923       -0.3625413846       -1.5294846428
 H          5.0220582458        0.5171579243       -2.1775692712
 H          5.8460293972       -1.0072478748       -1.8500635284
 C          3.7009599749       -1.0939292732       -1.7587040585
 H          2.8766591977       -0.3746372739       -1.7425502110
 H          3.7160471295       -1.5156093252       -2.7663348098
 C          3.3962571249       -2.2106326901       -0.7396578709
 H          4.2494391606       -2.3770412397       -0.0834944401
 H          3.1770382209       -3.1422016777       -1.2658115916
 H          3.3907415447        1.0913240423       -0.0515483315
 H          4.4805812428        1.5255083922        1.2599857054
 H          4.1149384543       -1.0459652134        1.9564971125
 H          3.0581122018        0.2596091188        2.4997741637
 O          1.0611050952       -0.5802428731        1.7128460861
 C         -0.1908601541       -1.0147269479        1.3050987388
 O         -1.1404880670       -0.5069921663        1.9296601150
 O          0.8516568739       -3.2875775732       -1.3153243552
 C         -1.6277532627       -2.3628293589       -0.2345793898
 C         -2.3782813570       -1.1474435569       -0.7278752137
 C         -3.7660443862       -1.0640126155       -0.7191180214
 C         -4.4035104515        0.0736552920       -1.1832583284
 C         -3.6784102369        1.1612861763       -1.6364521329
 C         -2.2902493271        1.0876812390       -1.6465679554
 C         -1.6588743585       -0.0694986379       -1.2243029431
 H         -0.5812561675       -0.1117548941       -1.2646186760
 N         -1.4981203085        2.1698802488       -2.0678042081
 S         -0.0978610208        2.5498877138       -1.2420946852
 O          0.2067924350        3.8989178711       -1.6777229423
 O          0.9336920746        1.5755042436       -1.5047666865
 C         -0.4683403900        2.5903966152        0.5038658116
 C          0.5934017112        2.4363066350        1.3708396500
 C          0.3699420890        2.5170350918        2.7345861402
 C         -0.9097100248        2.7515638778        3.2091351149
 C         -1.9646171982        2.9140924900        2.3268996312
 C         -1.7455620943        2.8410403608        0.9608835560
 H         -2.5606225742        2.9598027399        0.2663121747
 H         -2.9616555032        3.0905650401        2.6973157559
 H         -1.0861197287        2.8006860129        4.2721218013
 H          1.1920296181        2.3851698152        3.4200655434
 H          1.5716673067        2.2398357393        0.9624508830
 H         -2.0068201349        3.0048603305       -2.3198816041
 H         -4.1769647783        2.0558307746       -1.9781046710
 H         -5.4816470138        0.1217502587       -1.1754792172
 H         -4.3476657332       -1.8910181127       -0.3455581687
 H         -1.4363093819       -3.0225469575       -1.0950436108
 C         -2.3971493487       -3.1410388824        0.8139613633
 C         -3.3168088579       -4.2555600166        0.4151409992
 C         -2.0120094922       -4.5639941385        1.0835096092
 H         -2.0212794492       -4.9169996165        2.1036602937
 H         -1.2155964812       -4.9813856070        0.4845217993
 H         -4.2256377723       -4.4006674089        0.9795547287
 H         -3.4075073669       -4.4801168092       -0.6371083296
 H         -2.6717081857       -2.5270888713        1.6640446000
