  62
        -98.94434645
 C          1.5914253429        1.4054119394        0.5019611283
 C          1.6437778166        0.1186685909        1.0955862231
 C          2.7837921703       -0.7204610407        0.7122265990
 C          3.6963705007       -0.2489083389       -0.1566877903
 C          4.9327731863       -0.9698888527       -0.6214913053
 C          4.6928607752       -1.9312103995       -1.7935776944
 C          3.9388382829       -3.2128019045       -1.4375698549
 H          4.0281328709       -3.8847416397       -2.2934379413
 H          4.4276138226       -3.6966257155       -0.5913899844
 C          2.4502364485       -3.0043173059       -1.1254349333
 H          2.1302527344       -2.0310149798       -1.5051135529
 H          1.8595986202       -3.7595099934       -1.6482275924
 C          2.0926653442       -3.0988162410        0.3575667345
 H          2.2832916656       -4.1128398069        0.7149878709
 H          1.0246227190       -2.8951424970        0.4627700119
 C          2.8495958704       -2.1145228064        1.2583358573
 H          2.3697782823       -2.1096018150        2.2398278981
 H          3.8865427563       -2.4284670438        1.3762336237
 H          4.1530441739       -1.3963829339       -2.5785244552
 H          5.6712165591       -2.2083556516       -2.1930498495
 H          5.6366866598       -0.2005703224       -0.9462869697
 H          5.3746276817       -1.5147503273        0.2132084538
 O          3.6033571003        0.9862302970       -0.7151458918
 C          2.5393239376        1.8311716920       -0.4289006374
 O          2.5718960622        2.9084861491       -1.0530836428
 O          0.7837111148       -0.3036682599        1.9131275227
 C          0.4173945319        2.3026155191        0.8587759538
 C         -0.5474101852        2.3047434778       -0.3012834821
 C         -0.6069642231        3.3270216977       -1.2399553904
 C         -1.4850255102        3.2427677210       -2.3061945772
 C         -2.3322110968        2.1581707473       -2.4425405651
 C         -2.2814723144        1.1304265722       -1.5070466021
 C         -1.3828224165        1.2043425746       -0.4551007996
 H         -1.3326383744        0.3980173373        0.2622246025
 N         -3.1256029914        0.0140972768       -1.6131089840
 S         -3.8778328779       -0.5762850236       -0.2350433583
 O         -5.0854310330       -1.2062013959       -0.7286230736
 O         -4.0627561938        0.4632788913        0.7500952477
 C         -2.7971739540       -1.8476193569        0.3800030561
 C         -2.4866697675       -2.8975960958       -0.4621796625
 C         -1.6964937878       -3.9280225662        0.0184431380
 C         -1.2337496092       -3.8917010286        1.3261128551
 C         -1.5511152679       -2.8290108621        2.1570380496
 C         -2.3424919032       -1.7957860981        1.6815978700
 H         -2.6076635289       -0.9497442380        2.2956943222
 H         -1.1794405192       -2.7927182728        3.1681405465
 H         -0.6199466548       -4.6961096371        1.7000739982
 H         -1.4410655961       -4.7549674459       -0.6245493305
 H         -2.8725308868       -2.8923522625       -1.4680849777
 H         -3.7668514587        0.0465722532       -2.3927533128
 H         -3.0274676217        2.1029001305       -3.2668247949
 H         -1.5184029459        4.0390675682       -3.0345592656
 H          0.0483229574        4.1770216590       -1.1457859848
 H         -0.0813462722        1.8037649621        1.7016822446
 C          0.8480882386        3.6839230842        1.3017114250
 C         -0.1367945468        4.5585303727        2.0164552441
 C          1.0171740422        3.9627006101        2.7639014244
 H          1.8217876372        4.6124805091        3.0739320210
 H          0.8167901030        3.1563831399        3.4543100012
 H         -0.1273507748        5.6188576521        1.8155009942
 H         -1.1220447390        4.1539198816        2.1954431511
 H          1.5492433164        4.1559958396        0.6251391445
