  62
        -98.94051815
 C         -0.6819704469       -1.4050634899        0.5220612018
 C         -1.2157987770       -0.8063874229       -0.6435033859
 C         -2.2699112820        0.1959483951       -0.4231368880
 C         -2.5721747010        0.5641056042        0.8345200995
 C         -3.6893631473        1.4906904990        1.2244053808
 C         -5.0292900204        0.7269851731        1.1855759160
 C         -6.0060818088        1.2178871323        0.1161081515
 H         -6.8027810303        0.4749520786        0.0386141755
 H         -6.4602024896        2.1519346334        0.4537165097
 C         -5.4145047047        1.4623893405       -1.2759744693
 H         -6.2565409269        1.5383226273       -1.9672201113
 H         -4.9094592197        2.4290801035       -1.2945686771
 C         -4.4462993737        0.3918112306       -1.7964273727
 H         -4.6323328255        0.2564589954       -2.8636198592
 H         -4.6406973585       -0.5676051705       -1.3164512276
 C         -2.9556496696        0.7499399390       -1.6400616806
 H         -2.4008160682        0.3354844543       -2.4863181744
 H         -2.8392616404        1.8348661498       -1.6675311290
 H         -4.8146047565       -0.3319490211        1.0260567488
 H         -5.5203269178        0.8027966953        2.1570412573
 H         -3.4842022472        1.8459079090        2.2346429619
 H         -3.7215632665        2.3434392677        0.5501589724
 O         -1.9395756693        0.0578272199        1.9266937522
 C         -1.0163604442       -0.9679302043        1.8026535293
 O         -0.5709762028       -1.3952589943        2.8879549523
 H          1.8619273660       -0.5248223836        1.0348626012
 C          2.2274350242       -1.0306423867        0.1522725355
 C          1.5345836222       -2.1309310576       -0.3392436528
 C          2.0300469172       -2.7857501555       -1.4588416332
 C          3.1864438117       -2.3389885572       -2.0742874120
 C          3.8722307703       -1.2430420350       -1.5854513218
 C          3.3904178184       -0.5880372338       -0.4566406544
 N          4.0869109173        0.5021849120        0.0824868884
 S          3.3106173879        1.7079651750        0.9220254207
 O          4.2597078589        2.8023189028        0.9185506856
 O          2.9026381479        1.2430937144        2.2240534071
 C          1.8909813950        2.1848932823       -0.0461102333
 C          2.0473500173        2.3929700444       -1.4021764777
 C          0.9722023371        2.8637305732       -2.1368597885
 C         -0.2300902068        3.1355748298       -1.5037643944
 C         -0.3736712774        2.9171207335       -0.1431458165
 C          0.6941510092        2.4303411821        0.5933893348
 H          0.6187134539        2.2354624866        1.6524115130
 H         -1.3075012077        3.1258742517        0.3533396889
 H         -1.0578830637        3.5236200187       -2.0758960566
 H          1.0763265478        3.0247947883       -3.1975881943
 H          2.9993057081        2.1942747103       -1.8664699038
 H          4.8624423155        0.8434239030       -0.4649823669
 H          4.7769539037       -0.8993547736       -2.0626601804
 H          3.5584133043       -2.8521009034       -2.9478985787
 H          1.5100509619       -3.6425700241       -1.8532434689
 C          0.2931200434       -2.5623219922        0.4010093950
 H          0.5906503920       -2.8144892384        1.4297166729
 C         -0.4017926690       -3.7599643253       -0.2136178283
 C          0.0813899864       -5.1459437785        0.0865031320
 C         -1.2098200791       -4.6592551248        0.6709197491
 H         -2.1353389153       -5.0636427514        0.2892168722
 H         -1.2399958692       -4.4217196888        1.7248066360
 H          0.0396773264       -5.8887412582       -0.6956382978
 H          0.9293789607       -5.2469721817        0.7469183957
 H         -0.7911561824       -3.5547265496       -1.2039919054
 O         -0.8514560221       -1.1089884192       -1.8087242611
