  62
        -98.94122501
 C          1.5374900160        1.6202626860       -0.2191409279
 C          2.6784446392        1.2599213272        0.5415523242
 C          3.4797123085        0.1337633891        0.0394287738
 C          3.1024077904       -0.4964122159       -1.0882043761
 C          3.7566643644       -1.6403292088       -1.8317197466
 C          4.6425765930       -2.6393354584       -1.0881906430
 C          3.9562474903       -3.4057849600        0.0399048873
 H          3.1610879015       -4.0230061103       -0.3856696210
 H          4.6961849814       -4.0768058911        0.4824265466
 C          3.3472875666       -2.5468082072        1.1474732648
 H          3.0127152278       -3.2174069616        1.9435142442
 H          2.4620152060       -2.0285684737        0.7734561993
 C          4.2905441121       -1.5192800897        1.7741680939
 H          5.2181197392       -2.0071555215        2.0788916333
 H          3.8013507085       -1.1390056059        2.6743845607
 C          4.6355272982       -0.3029995024        0.8902621757
 H          4.8740764316        0.5375269920        1.5476678055
 H          5.5098232897       -0.4927155879        0.2711231505
 H          4.9730937995       -3.3696640446       -1.8319847795
 H          5.5349710341       -2.1485993240       -0.7106564018
 H          2.9400627294       -2.1821040613       -2.3185047675
 H          4.3500754328       -1.1881232420       -2.6343633291
 O          2.0071137524       -0.1031607593       -1.7976406555
 C          1.1901684140        0.9380467703       -1.3833263868
 O          0.2176667476        1.1369804168       -2.1370167010
 O          3.0166880065        1.8583608640        1.5964024838
 C          0.6476445115        2.7291896174        0.3210295551
 C         -0.6025223830        2.0645412867        0.8410690415
 C         -0.6281717449        1.5608087352        2.1386601146
 C         -1.7170084429        0.8422691885        2.5971551438
 C         -2.7909264845        0.5852839931        1.7623239226
 C         -2.7661979625        1.0729413714        0.4626603569
 C         -1.6930993235        1.8314475601        0.0172020618
 H         -1.6863024423        2.1936070060       -0.9983733637
 N         -3.8183956246        0.7521706672       -0.4163355975
 S         -4.2401111292       -0.8681838784       -0.4782710938
 O         -4.6949924802       -1.1007579050       -1.8316097119
 O         -5.2074019331       -1.1449386868        0.5560973056
 C         -2.7472119261       -1.7948770713       -0.1500335335
 C         -1.6221889517       -1.5519392141       -0.9127412003
 C         -0.4708121261       -2.2782802367       -0.6544035648
 C         -0.4600997734       -3.2303846582        0.3525537583
 C         -1.5992893713       -3.4650403165        1.1066043731
 C         -2.7534447431       -2.7413114498        0.8551430878
 H         -3.6593235493       -2.8867330743        1.4210282791
 H         -1.5894791283       -4.2057742030        1.8897853589
 H          0.4416069324       -3.7887269122        0.5501917701
 H          0.4132015794       -2.0827292387       -1.2410105396
 H         -1.6327913206       -0.7997032644       -1.6862995415
 H         -3.6767289800        1.1131750548       -1.3493100897
 H         -3.6393455783        0.0070079960        2.0912716927
 H         -1.7252064271        0.4647863091        3.6081547943
 H          0.2275696765        1.7238374055        2.7782737722
 H          1.1937692967        3.1537471191        1.1732972143
 C          0.3901027570        3.8263231485       -0.6891181504
 C         -0.2015223281        5.1217572213       -0.2221834950
 C          1.2317878415        5.0652930095       -0.6551801305
 H          1.5071215159        5.5260370291       -1.5920942273
 H          1.9977375216        5.1296874498        0.1036460377
 H         -0.9129115708        5.6243089272       -0.8595672286
 H         -0.4092782111        5.2217755162        0.8324210794
 H          0.0972940149        3.4595913586       -1.6649203265
