  62
        -98.93744904
 C         -1.8289717213       -1.0638198386        0.4806866456
 C         -2.7582868033       -1.0543109323       -0.5856207061
 C         -4.0847801618       -0.4755462824       -0.2914825024
 C         -4.3242857014        0.0354888151        0.9278860622
 C         -5.5781091931        0.7081999323        1.4147688460
 C         -5.4908991054        2.2322092120        1.2259617028
 C         -5.9567898716        2.7400921982       -0.1379328367
 H         -7.0417891828        2.6372955924       -0.2075507275
 H         -5.7253512655        3.8068089613       -0.1839929226
 C         -5.3208310876        2.0463818144       -1.3452762075
 H         -4.2506644758        1.9157207252       -1.1732147981
 H         -5.4296517109        2.7077798415       -2.2070648720
 C         -5.9672834959        0.6921746689       -1.6725450533
 H         -6.2409170977        0.6684664525       -2.7294878292
 H         -6.8964799601        0.5951705706       -1.1113823483
 C         -5.0786703153       -0.5335718052       -1.4196717516
 H         -5.7165719034       -1.4120989446       -1.2751565281
 H         -4.4731461524       -0.7314799767       -2.3097926098
 H         -6.0999777013        2.7156693907        1.9925591323
 H         -4.4536375346        2.5327793203        1.3957431186
 H         -6.4531354962        0.2998882439        0.9180934829
 H         -5.6490633635        0.4944288759        2.4833776597
 O         -3.3818019051        0.0515467763        1.9115591376
 C         -2.1256106636       -0.4849384170        1.7166220497
 O         -1.3672020285       -0.3911746912        2.7041010918
 O         -2.5122993987       -1.5059529327       -1.7338606086
 C         -0.4308373518       -1.6435835921        0.3295370393
 C          0.4167947248       -0.6719641765       -0.4548046690
 C          0.5812396927       -0.7495069163       -1.8319595422
 C          1.3648602760        0.1787308403       -2.4958899560
 C          2.0082721991        1.1890415081       -1.8036848645
 C          1.8474827505        1.2744289299       -0.4269290945
 C          1.0545951679        0.3505811944        0.2361188429
 H          0.9189615378        0.4239422113        1.3078272700
 N          2.5484319356        2.2708434345        0.2889981976
 S          4.2200276237        2.1276854580        0.1855983569
 O          4.7436600724        2.7563157997        1.3774904578
 O          4.6644951937        2.6789385304       -1.0691440407
 C          4.4998637347        0.3659794745        0.2144113535
 C          4.3451889333       -0.2977300412        1.4152324752
 C          4.4501409728       -1.6788863854        1.4364096742
 C          4.6956109942       -2.3697465799        0.2594709604
 C          4.8524704018       -1.6883056867       -0.9373170672
 C          4.7523061377       -0.3066664943       -0.9639522446
 H          4.8662480394        0.2607537030       -1.8726340733
 H          5.0438601084       -2.2288862669       -1.8499519491
 H          4.7652675157       -3.4461227798        0.2765764611
 H          4.3309804284       -2.2108871298        2.3669075813
 H          4.1552508826        0.2729416725        2.3105800046
 H          2.2726199520        2.3212808337        1.2599556786
 H          2.6385199464        1.9081178566       -2.3018883689
 H          1.4805621110        0.1111381088       -3.5667944192
 H          0.0764547636       -1.5259953658       -2.3822561907
 H         -0.0218103576       -1.6876608257        1.3479999391
 C         -0.4227265907       -3.0418998697       -0.2513049944
 C          0.8484077125       -3.8332218065       -0.1881775128
 C         -0.3167854398       -4.2158004973        0.6727669151
 H         -0.8669886683       -5.1123745515        0.4293173148
 H         -0.2581989616       -4.0159884595        1.7329567022
 H          1.1016597633       -4.4691570983       -1.0220406244
 H          1.6990810825       -3.3650459363        0.2845895675
 H         -1.0498880408       -3.1536499561       -1.1255548658
