  62
        -98.92896101
 C         -2.4869702913       -0.8917602131        0.7899070935
 C         -2.8323543808       -0.3601666359       -0.4765805908
 C         -3.6142429381        0.8918980237       -0.4661097729
 C         -3.9262186915        1.4731909555        0.7037649982
 C         -4.7482433072        2.7136039353        0.9499860129
 C         -4.5043910212        3.9195545711        0.0323947098
 C         -3.0578620150        4.0805683335       -0.4574052224
 H         -2.3967486923        3.4158647161        0.1013686043
 H         -2.7301142169        5.1037717990       -0.2646141633
 C         -2.9013738099        3.8124389807       -1.9562785150
 H         -1.9790962858        4.2843925450       -2.3033816415
 H         -3.7305070758        4.2877198116       -2.4850744608
 C         -2.8326953473        2.3390532273       -2.3568837529
 H         -1.8848753093        1.9058438293       -2.0248937674
 H         -2.8404310292        2.2864366003       -3.4482566141
 C         -3.9652306748        1.4519260726       -1.8145366399
 H         -4.0654695888        0.5922989594       -2.4828153212
 H         -4.9111247306        1.9878830270       -1.7941003211
 H         -4.7996917273        4.8072732977        0.5943052389
 H         -5.1662937609        3.8609434865       -0.8304650626
 H         -4.5368899693        2.9925834665        1.9851262558
 H         -5.8050535008        2.4352637808        0.9014304272
 O         -3.5275161483        0.9525892474        1.8996858886
 C         -2.7970573632       -0.2200071554        1.9737431959
 O         -2.4791142690       -0.5505733426        3.1344051098
 O         -2.5255229199       -0.8958576495       -1.5712041251
 C         -1.6924917370       -2.1788981590        0.9315092033
 C         -0.5177447225       -2.1700917812       -0.0160831414
 C         -0.3659962060       -3.0696786601       -1.0618347683
 C          0.7409382809       -2.9979084059       -1.8895808427
 C          1.7157867635       -2.0377708261       -1.6934177177
 C          1.5770718309       -1.1353702968       -0.6464143824
 C          0.4697720578       -1.2128082804        0.1850506085
 H          0.3568575997       -0.5087608958        1.0016074520
 N          2.5579950099       -0.1432850863       -0.4446031285
 S          4.1693656475       -0.6517157771       -0.5151123154
 O          4.5648307527       -0.7240616426       -1.8992067662
 O          4.3407177743       -1.8642335651        0.2540233034
 C          5.0032259150        0.7098344876        0.2757267874
 C          5.2453705319        1.8560617601       -0.4576215446
 C          5.8828573171        2.9215488046        0.1576578806
 C          6.2653876052        2.8239093453        1.4874417276
 C          6.0157296986        1.6669749171        2.2100529522
 C          5.3768606726        0.5980035831        1.6013882978
 H          5.1704883686       -0.3237405154        2.1215857895
 H          6.3165724849        1.5927861496        3.2427123407
 H          6.7641258796        3.6535108951        1.9631939123
 H          6.0810058065        3.8221163401       -0.4008129034
 H          4.9402545827        1.8827474191       -1.4906319099
 H          2.3897099331        0.3846334681        0.4012453318
 H          2.5828762079       -1.9767702580       -2.3311681398
 H          0.8448025527       -3.6988210932       -2.7043600888
 H         -1.1257124961       -3.8115716742       -1.2445440193
 H         -1.2907595669       -2.1502601209        1.9582821536
 C         -2.5316870445       -3.4442792019        0.8365004877
 C         -3.9531788245       -3.4590701184        1.3121076837
 C         -3.6496483022       -3.6039154157       -0.1473928998
 H         -3.7920286184       -4.5721830331       -0.6049485613
 H         -3.8612349932       -2.7759876594       -0.8047210055
 H         -4.3033301117       -4.3235497349        1.8558849310
 H         -4.3730038217       -2.5257655405        1.6588749029
 H         -1.9440888838       -4.3312550016        1.0541129284
