  62
        -98.92603890
 C         -1.6602440489       -0.3351658271        0.9614664789
 C         -2.7501871735       -0.9978375414        0.3425561382
 C         -3.9595921093       -0.1903052473        0.0756735232
 C         -3.9609099188        1.1281043118        0.3356699305
 C         -5.0426992836        2.1777112359        0.1940958306
 C         -6.2876210756        1.9102290891       -0.6480541546
 C         -6.0285500055        1.7595835134       -2.1466223640
 H         -6.9691495220        1.4834328203       -2.6283928702
 H         -5.7228822066        2.7296536061       -2.5469630522
 C         -4.9565594436        0.7432118132       -2.5327249019
 H         -4.8857741129        0.7306625770       -3.6239024645
 H         -3.9863687303        1.0710783560       -2.1534606241
 C         -5.2142916890       -0.6888476438       -2.0676156869
 H         -4.4702233831       -1.3292432401       -2.5490168188
 H         -6.2008573946       -1.0129923183       -2.4047091641
 C         -5.1119460020       -0.9225949120       -0.5500750136
 H         -6.0419975604       -0.6697341223       -0.0464189338
 H         -4.9299471884       -1.9887109729       -0.3873684622
 H         -6.8233221614        1.0454591707       -0.2672477718
 H         -6.9450102428        2.7735494511       -0.5126005428
 H         -5.3619147382        2.4160687523        1.2149529336
 H         -4.5388803873        3.0716417021       -0.1871703230
 O         -2.8634769492        1.7441473764        0.8605722331
 C         -1.7196921860        1.0466551044        1.1921487856
 O         -0.8224654296        1.7673637232        1.6729025703
 H          2.3120867171       -0.8379491069        1.4481367926
 C          1.9552006376       -1.2387785247        0.5082765664
 C          0.5869490930       -1.3833786362        0.3037014615
 C          0.1544075752       -1.8962056594       -0.9119223845
 C          1.0634770191       -2.2303404262       -1.9019864628
 C          2.4215322670       -2.0677517767       -1.7005550461
 C          2.8673636434       -1.5761428652       -0.4816098474
 N          4.2585551792       -1.3908058568       -0.2945437544
 S          4.8940582365       -0.0320110346       -1.0459620870
 O          4.4758933785       -0.0324911596       -2.4231295065
 O          6.3169073362       -0.0640887654       -0.7992939561
 C          4.1584095497        1.3280712244       -0.1565121353
 C          4.8875280095        1.9479288689        0.8392698718
 C          4.2749116388        2.9227304593        1.6099982596
 C          2.9424447171        3.2380686323        1.3904270408
 C          2.2213193763        2.6038749575        0.3901201691
 C          2.8350855560        1.6431020191       -0.3984971294
 H          2.3053290270        1.1369917750       -1.1899713630
 H          1.1763076404        2.8302121159        0.2482730939
 H          2.4529683911        3.9778283597        2.0039628419
 H          4.8311766114        3.4229862454        2.3864792140
 H          5.9159487322        1.6583802343        0.9844978966
 H          4.5345457311       -1.3824453116        0.6782102873
 H          3.1402339434       -2.2982005342       -2.4696717894
 H          0.7055956675       -2.6203923446       -2.8429296272
 H         -0.8992628314       -2.0443513912       -1.0807545747
 C         -0.3507370149       -0.9632845941        1.4150934928
 H          0.1527066047       -0.1322401402        1.9343314075
 C         -0.4300040978       -2.0868663342        2.4491514961
 C         -1.6590146159       -2.3702369849        3.2560869697
 C         -1.1711108811       -3.3722330261        2.2533378913
 H         -0.7125362705       -4.2815574558        2.6140974549
 H         -1.7426423501       -3.4887036506        1.3476932910
 H         -1.5476991292       -2.5823210720        4.3093321890
 H         -2.5551432751       -1.8175583427        3.0129927121
 H          0.5117650557       -2.1755954464        2.9838710278
 O         -2.7602884054       -2.2104879849        0.0067780849
