  62
        -98.93744218
 C          2.1824187350        0.7926567943       -0.0914012528
 C          2.9128667744        0.0846256666        0.8901364657
 C          3.7382928269       -1.0358945079        0.4100228850
 C          3.7321921985       -1.3449249671       -0.8982309306
 C          4.4638026400       -2.4626738115       -1.5984149285
 C          5.9277425435       -2.7065591599       -1.2042783535
 C          6.7070622961       -1.4525384765       -0.7818172528
 H          7.6440785403       -1.4130490999       -1.3402997028
 H          6.1395778780       -0.5551955936       -1.0342034052
 C          7.0500610897       -1.4370572374        0.7099019119
 H          7.3844280246       -2.4347913690        1.0025982984
 H          7.8860801849       -0.7522705209        0.8710116926
 C          5.9201643654       -0.9961360113        1.6396969930
 H          5.7348144765        0.0743471868        1.5160807666
 H          6.2533141468       -1.1459543683        2.6695595534
 C          4.5804518438       -1.7247987860        1.4450353852
 H          4.7334408455       -2.7747683116        1.2070476054
 H          4.0221655500       -1.6579513644        2.3831334875
 H          5.9709811724       -3.4378379849       -0.3981983202
 H          6.4143324804       -3.1629246356       -2.0678649676
 H          3.8957052020       -3.3859744523       -1.4519855779
 H          4.4069116526       -2.2154806449       -2.6610672617
 O          2.9831316576       -0.6566928555       -1.8057821638
 C          2.2003889030        0.4262287272       -1.4363384775
 O          1.5828706096        0.9593058679       -2.3763780521
 H         -0.0668475383       -0.2524185133        0.7030875041
 C         -0.6828979252        0.5212295554        0.2595193827
 C         -0.1141849323        1.7575489768       -0.0226388881
 C         -0.9217125310        2.7434683526       -0.5741331000
 C         -2.2535294037        2.4864760726       -0.8511760836
 C         -2.8092957390        1.2494856004       -0.5837201187
 C         -2.0145518568        0.2592378100       -0.0208326825
 N         -2.5738784481       -1.0041425250        0.2526337078
 S         -3.9212853362       -1.0424507266        1.2590979627
 O         -3.9181497877        0.0675829681        2.1840961219
 O         -3.9210865703       -2.3662001894        1.8431425204
 C         -5.3008074450       -0.9017553184        0.1428517186
 C         -5.4432141561       -1.8603389607       -0.8412635683
 C         -6.5175591440       -1.7703926831       -1.7118146881
 C         -7.4275200280       -0.7315423607       -1.5821473231
 C         -7.2723902454        0.2207477054       -0.5864520104
 C         -6.1990973124        0.1374019918        0.2869880748
 H         -6.0346745244        0.8566365229        1.0733293686
 H         -7.9813029522        1.0268965819       -0.4869512215
 H         -8.2628868551       -0.6644187150       -2.2611042067
 H         -6.6416496737       -2.5091688266       -2.4871777177
 H         -4.7165749184       -2.6532085355       -0.9042473788
 H         -1.8936452446       -1.6828334439        0.5640340619
 H         -3.8434811215        1.0429963131       -0.8057623837
 H         -2.8663515835        3.2612337106       -1.2858060871
 H         -0.5076234607        3.7143636090       -0.7906766494
 C          1.3365145544        1.9790333894        0.3297016058
 H          1.4132480648        2.0177727843        1.4274309001
 C          1.9105299297        3.2588896897       -0.2423576625
 C          1.7560987375        4.5554211362        0.4933793178
 C          3.0937395040        3.8832419235        0.4326015597
 H          3.8667720731        4.3211099859       -0.1808952199
 H          3.4659548741        3.4008896130        1.3249456863
 H          1.2230945349        4.5372904521        1.4320860502
 H          1.6128852895        5.4594396136       -0.0790536108
 H          1.8859607750        3.2756190669       -1.3262649297
 O          2.8683027527        0.3671328358        2.1187933856
