  62
        -98.93988456
 C          2.9343223773        0.1598439262        0.2556239176
 C          2.6349985553       -0.4985325369       -0.9634099570
 C          2.4760697080       -1.9551744317       -0.8702734483
 C          2.7169575389       -2.5828243344        0.2948153021
 C          2.5573342741       -4.0562234624        0.5529876869
 C          1.1208969572       -4.4551307329        0.9217722665
 C          0.1145601836       -4.4174579790       -0.2299711893
 H          0.5046150644       -4.9923210007       -1.0701449589
 H         -0.7885784710       -4.9211911697        0.1197431371
 C         -0.2624548026       -3.0058982857       -0.7044310484
 H          0.0177436729       -2.2783348186        0.0633988052
 H         -1.3468585451       -2.9399449865       -0.8264210245
 C          0.3684429344       -2.5964427372       -2.0368333324
 H          0.0757590298       -1.5651575259       -2.2541078618
 H         -0.0214472551       -3.2327312855       -2.8338018135
 C          1.9019542546       -2.6657789994       -2.0581962462
 H          2.2350703553       -3.7023058335       -2.0872559804
 H          2.2554862738       -2.1547363560       -2.9565921105
 H          1.1550958887       -5.4751140922        1.3111887668
 H          0.7757800602       -3.8038149615        1.7291414617
 H          2.8847884954       -4.6232991481       -0.3181748305
 H          3.2089725757       -4.3001088430        1.3945569996
 O          3.1408316985       -1.9242577354        1.4078293985
 C          3.1881010743       -0.5373835683        1.4348974980
 O          3.4689024844       -0.0535383030        2.5513920835
 O          2.4687405598        0.0964249772       -2.0583576488
 C          2.8803198040        1.6724979614        0.3197504589
 C          1.5246222654        2.1698809340       -0.1343462477
 C          1.3416169038        3.4414020766       -0.6656812988
 C          0.0853054552        3.8686546092       -1.0612420408
 C         -1.0142485969        3.0346878171       -0.9634865649
 C         -0.8414771686        1.7624548262       -0.4393039184
 C          0.4084616415        1.3551280743       -0.0027740299
 H          0.5151324028        0.3677158618        0.4311770205
 N         -1.9460299525        0.8757765220       -0.3660016569
 S         -3.0341679313        1.1808982401        0.8910723819
 O         -3.3436913712        2.5865188867        0.9015127341
 O         -2.5221465047        0.6239704594        2.1278137688
 C         -4.4373918827        0.2339324634        0.3394544024
 C         -5.4136060890        0.8526932957       -0.4161982308
 C         -6.4761292704        0.0969302120       -0.8859707453
 C         -6.5407016643       -1.2581849601       -0.5986978570
 C         -5.5518929987       -1.8657557613        0.1604550278
 C         -4.4880582871       -1.1147843929        0.6344881574
 H         -3.7048772880       -1.5449661294        1.2385212195
 H         -5.6049944981       -2.9191423053        0.3841542260
 H         -7.3675592609       -1.8450342545       -0.9663584587
 H         -7.2479336952        0.5659410069       -1.4746400092
 H         -5.3230849522        1.9085874922       -0.6103439910
 H         -1.6298760779       -0.0802745042       -0.2559259110
 H         -1.9947441443        3.3514526249       -1.2776527778
 H         -0.0356544396        4.8618594817       -1.4661293210
 H          2.1893999955        4.0994347542       -0.7702551948
 H          3.0068121505        1.9413106752        1.3798287458
 C          4.0168116398        2.2848647008       -0.4764049731
 C          4.7003037612        3.5298618975        0.0011229610
 C          5.4056251259        2.2105147657        0.0809619533
 H          6.2241643208        2.0170260593       -0.5956919778
 H          5.5224866951        1.7495271980        1.0514548832
 H          5.0388529754        4.2453912465       -0.7330351149
 H          4.3543423026        3.9710457857        0.9240820281
 H          3.8964598944        2.1414930533       -1.5438865637
