  62
        -98.94047167
 C         -1.9875363292       -1.2103742653        0.5273085977
 C         -1.9662730549        0.1147590608        1.0379387674
 C         -3.1130402300        0.9646505031        0.7035120523
 C         -4.1234652813        0.4583670605       -0.0257662159
 C         -5.3904611384        1.1752634665       -0.4059882144
 C         -5.2651569904        2.0473449218       -1.6624862769
 C         -4.4557775008        3.3319062631       -1.4814254837
 H         -4.6283543473        3.9475280369       -2.3664774533
 H         -4.8388688935        3.8832514850       -0.6221038012
 C         -2.9454919287        3.1085978902       -1.3220844187
 H         -2.6878921035        2.1028748212       -1.6631474368
 H         -2.4038035953        3.8091285673       -1.9618736987
 C         -2.4213335587        3.2981204913        0.1013276720
 H         -1.3497352297        3.0832490417        0.0948934690
 H         -2.5536797249        4.3391181167        0.4042568970
 C         -3.0881197597        2.3958930143        1.1485704713
 H         -4.0990013946        2.7468340868        1.3553323373
 H         -2.5046861620        2.4473554020        2.0711009407
 H         -4.8235074454        1.4477854450       -2.4619980455
 H         -6.2765634031        2.3202040054       -1.9724882404
 H         -5.7289853763        1.7876027734        0.4304187715
 H         -6.1386018636        0.4027336313       -0.5967579209
 O         -4.1115947742       -0.8149797995       -0.4949748615
 C         -3.0367412620       -1.6673829680       -0.2710469043
 O         -3.1628628585       -2.7725507357       -0.8340941658
 O         -1.0316377716        0.5620401601        1.7530155536
 C         -0.7926745083       -2.0811735225        0.8770712390
 C          0.2771050477       -1.9908993962       -0.1860600408
 C         -0.0165639552       -2.2351653517       -1.5233939644
 C          0.9635297448       -2.1164043318       -2.4920914324
 C          2.2560277760       -1.7608219754       -2.1475266403
 C          2.5627345579       -1.5268430246       -0.8146354274
 C          1.5763571215       -1.6448734199        0.1576006691
 H          1.8182420529       -1.4426603944        1.1923802709
 N          3.8862082753       -1.1656171482       -0.4778535912
 S          4.3918600491        0.3767724507       -0.9000256433
 O          3.8939942535        0.6799031404       -2.2165027103
 O          5.8263585318        0.3919086620       -0.7306256987
 C          3.6445740382        1.4405027700        0.3227314381
 C          4.4385820375        2.0032447798        1.3028584543
 C          3.8404629326        2.7617075164        2.2962337464
 C          2.4628954289        2.9206382588        2.3072499045
 C          1.6781180443        2.3432053825        1.3205997912
 C          2.2729354975        1.6034660735        0.3109684666
 H          1.6866157447        1.1473393200       -0.4714549410
 H          0.6034975105        2.4282519008        1.3510533547
 H          1.9926470424        3.4934451849        3.0909799370
 H          4.4466120895        3.2148750306        3.0642172406
 H          5.5029642626        1.8365254125        1.2637978855
 H          4.1163257182       -1.3348220853        0.4917722753
 H          3.0259372249       -1.6461574844       -2.8926645772
 H          0.7187522537       -2.3033051870       -3.5269337332
 H         -1.0231750403       -2.5136599326       -1.7967368115
 H         -0.3808216394       -1.6463368391        1.7982420675
 C         -1.1406195194       -3.5315003057        1.1479642405
 C         -0.2290639842       -4.3498045481        2.0104619977
 C         -1.5766164269       -3.9386579573        2.5218925923
 H         -2.3481185155       -4.6879938455        2.6145535366
 H         -1.6219461095       -3.1708352857        3.2805304230
 H         -0.0704197306       -5.3853602785        1.7519918406
 H          0.6399406264       -3.8635591685        2.4271567236
 H         -1.6166480917       -4.0229714056        0.3099146622
