  62
        -98.94469240
 C          1.9972482103        1.3506748383        0.3337668324
 C          2.6849923150        0.8080331091       -0.7786507263
 C          3.8609768828       -0.0165649712       -0.4624871946
 C          4.2068612038       -0.2100128484        0.8232302679
 C          5.3464059320       -1.0702610245        1.2856000336
 C          4.8856527427       -2.5116823652        1.5440427056
 C          4.0658173259       -3.1127941206        0.4020498003
 H          3.8217449050       -4.1400264843        0.6820224795
 H          3.1203417417       -2.5717346367        0.3156080739
 C          4.7753353170       -3.1088767407       -0.9592226006
 H          4.6312189921       -4.0830264024       -1.4312743592
 H          5.8481410566       -2.9733191998       -0.8171700383
 C          4.2569465613       -2.0568377829       -1.9416737301
 H          3.1685704928       -2.1290184926       -2.0162969629
 H          4.6672029962       -2.2837579521       -2.9292863744
 C          4.6227749763       -0.6028268930       -1.6174595768
 H          5.6989546822       -0.5222882240       -1.4514730593
 H          4.3613939803        0.0059678009       -2.4879119492
 H          4.2725379858       -2.5230220173        2.4483235668
 H          5.7673423020       -3.1292042399        1.7245575974
 H          5.7386992486       -0.6520446089        2.2141539907
 H          6.1321310459       -1.0586086553        0.5328842289
 O          3.5154767467        0.3207425126        1.8645593181
 C          2.3894688997        1.0982935047        1.6478033047
 O          1.8288975075        1.4950350534        2.6905640939
 O          2.3392003133        0.9999847242       -1.9727583024
 C          0.7643532065        2.2110888761        0.1184204354
 C         -0.3045018711        1.4026459756       -0.5771380669
 C         -0.9819737547        1.8320779011       -1.7097967453
 C         -1.9451516155        1.0284590916       -2.2970075478
 C         -2.2616894691       -0.2070542364       -1.7646205495
 C         -1.6048862140       -0.6366496568       -0.6174175381
 C         -0.6409480263        0.1687826091       -0.0320115302
 H         -0.1277664364       -0.1677233100        0.8610503613
 N         -1.9362971704       -1.8800039154       -0.0530518449
 S         -3.5588934390       -2.2688498327        0.0805404218
 O         -3.6420766668       -3.1624662170        1.2146309209
 O         -4.0343283797       -2.8000677374       -1.1726377655
 C         -4.3871045104       -0.7278099810        0.4326663627
 C         -5.3597410667       -0.2573588875       -0.4257860817
 C         -5.9706328986        0.9548663350       -0.1471380455
 C         -5.5965879765        1.6739949528        0.9771383093
 C         -4.6199146742        1.1862851929        1.8321983783
 C         -4.0079834614       -0.0263309989        1.5601198235
 H         -3.2480579935       -0.4327990088        2.2086863830
 H         -4.3291690603        1.7463124125        2.7066244620
 H         -6.0682353154        2.6201080870        1.1907564959
 H         -6.7319766397        1.3354107039       -0.8086848601
 H         -5.6165452080       -0.8470852080       -1.2906497762
 H         -1.4347258152       -2.0941801548        0.7958954145
 H         -2.9963963154       -0.8504940378       -2.2207998169
 H         -2.4543170278        1.3686998233       -3.1855380462
 H         -0.7484398651        2.7907398846       -2.1418558156
 H          0.3948350209        2.4650020966        1.1226865182
 C          1.1304055137        3.4908760792       -0.6025370859
 C          0.3066873646        4.7266210922       -0.4039618113
 C          1.6778008830        4.6358809822        0.1935930018
 H          2.4706474653        5.2299576119       -0.2355444758
 H          1.7653890742        4.5003089356        1.2620752893
 H          0.1588859322        5.3887062160       -1.2436041100
 H         -0.5404673484        4.6609764612        0.2616841528
 H          1.5617300243        3.3108572840       -1.5801630382
