  62
        -98.94474587
 C         -1.8606703241        0.7379623767       -0.3816337861
 C         -2.4678641637        0.1139939856        0.7350353642
 C         -3.5392616942       -0.8448838772        0.4259492674
 C         -3.8437713716       -1.1044548078       -0.8586361748
 C         -4.9472103039       -2.0149101193       -1.3120866850
 C         -6.2603726241       -1.2431704592       -1.5039982687
 C         -6.6302376354       -0.3489705889       -0.3205688052
 H         -7.5880684571        0.1203013273       -0.5551491735
 H         -5.8923881999        0.4519013435       -0.2344847020
 C         -6.7368317580       -1.0846731478        1.0225194508
 H         -6.8424857119       -2.1565181400        0.8508076188
 H         -7.6404307532       -0.7482766908        1.5352259382
 C         -5.5660151463       -0.8374772930        1.9757644796
 H         -5.8430877539       -1.2210207579        2.9613122583
 H         -5.3980938807        0.2374978393        2.0786514467
 C         -4.2372368074       -1.4973089595        1.5858347959
 H         -4.3967662914       -2.5602471135        1.3927213692
 H         -3.5553355140       -1.4018328013        2.4361506527
 H         -7.0605822202       -1.9637703744       -1.6823726193
 H         -6.1655372111       -0.6139894514       -2.3921031011
 H         -5.0827162825       -2.8067939727       -0.5778941001
 H         -4.6560383341       -2.4614582890       -2.2644756404
 O         -3.1994115153       -0.5257576932       -1.9046360976
 C         -2.2003452369        0.4111424592       -1.6937205172
 O         -1.6900237091        0.8642460754       -2.7392628691
 O         -2.1360860333        0.3443171159        1.9263708867
 C         -0.7671553405        1.7701346976       -0.1707391185
 C          0.4031344849        1.1423216389        0.5476489687
 C          1.0243250921        1.7126279858        1.6502800760
 C          2.0931442579        1.0767972341        2.2596619218
 C          2.5720324363       -0.1274063860        1.7792583141
 C          1.9712799568       -0.6954391772        0.6620843502
 C          0.9016360384       -0.0575862731        0.0538916361
 H          0.4324265698       -0.5036887929       -0.8148840569
 N          2.4638131027       -1.9073658546        0.1504114062
 S          4.1218415520       -2.0934071022        0.0272167517
 O          4.3184966320       -3.0195228892       -1.0662177478
 O          4.6601216321       -2.5035966772        1.3003949168
 C          4.7518011754       -0.4786200841       -0.3979727769
 C          5.6745853283        0.1372366790        0.4227078169
 C          6.1332959955        1.4008813106        0.0863642407
 C          5.6602814427        2.0250838905       -1.0571604781
 C          4.7356156069        1.3917394174       -1.8737053061
 C          4.2757157982        0.1273494370       -1.5438611669
 H          3.5593222060       -0.3908661484       -2.1615415584
 H          4.3674488274        1.8779254631       -2.7629717941
 H          6.0132468124        3.0108221884       -1.3159243747
 H          6.8536629858        1.8948164889        0.7181579364
 H          6.0118261109       -0.3830731573        1.3043356804
 H          1.9926453587       -2.2257376030       -0.6830133341
 H          3.3908477643       -0.6429119582        2.2543452211
 H          2.5577562888        1.5245537790        3.1246287982
 H          0.6653982573        2.6499186344        2.0415408271
 H         -0.4285799015        2.0610639370       -1.1759772313
 C         -1.3265464175        2.9919854353        0.5270771525
 C         -0.7115149673        4.3387956864        0.2974741482
 C         -2.0533881604        4.0182518396       -0.2873041752
 H         -2.9288938821        4.4876178344        0.1358175298
 H         -2.1226753640        3.8481553243       -1.3522347895
 H         -0.6673455754        5.0333658876        1.1226386352
 H          0.1318384130        4.3953802480       -0.3737762644
 H         -1.7186572976        2.7662018687        1.5118891677
