  62
        -98.94564486
 C          1.0971447377        1.4382794704        0.7587405028
 C          2.0144530005        1.4404038695       -0.3192857676
 C          3.0169490754        0.3652359352       -0.3069738633
 C          2.9864069546       -0.5563433956        0.6728028258
 C          3.9219891081       -1.7255339244        0.7753002012
 C          3.3661145758       -2.9608206978        0.0536725921
 C          2.8563512694       -2.6797291444       -1.3592594862
 H          2.5118525805       -3.6287625845       -1.7749340019
 H          1.9881027270       -2.0189897304       -1.3007616951
 C          3.9013325343       -2.0656699503       -2.3010627406
 H          4.9029139324       -2.2315207198       -1.9022611179
 H          3.8479277078       -2.5759935947       -3.2650633462
 C          3.7087179728       -0.5736807328       -2.5766703801
 H          4.3570622568       -0.2953577668       -3.4119350149
 H          2.6775092220       -0.3861390440       -2.8868261934
 C          4.0379007388        0.3654153568       -1.4097674823
 H          5.0299966250        0.1319913464       -1.0177247391
 H          4.0543385905        1.3868371181       -1.8011847490
 H          2.5353572493       -3.3548178544        0.6402976198
 H          4.1509437317       -3.7183864082        0.0152073289
 H          4.8848896069       -1.4463925956        0.3512586326
 H          4.0574633081       -1.9636294892        1.8315881230
 O          2.0673427632       -0.5447571844        1.6726941069
 C          1.1046013212        0.4485785480        1.7420161337
 O          0.3254630306        0.3440709305        2.7107055408
 H         -1.3291932921        0.2936796914        0.2741807115
 C         -1.5317476764        1.0562461789       -0.4646853999
 C         -0.9263898850        2.3009056188       -0.3356030467
 C         -1.1954366253        3.2743859357       -1.2873829852
 C         -2.0417558938        2.9964680392       -2.3475034073
 C         -2.6487044378        1.7601231477       -2.4672866032
 C         -2.3936765400        0.7813843289       -1.5124394711
 N         -2.9813532181       -0.4904620729       -1.5977484360
 S         -3.5441722354       -1.2199156829       -0.1984334614
 O         -4.5239852428       -2.1789126314       -0.6658402441
 O         -4.0232001862       -0.2410593924        0.7494271155
 C         -2.1564164682       -2.1151057877        0.4630333521
 C         -1.4675269482       -2.9729035956       -0.3719385890
 C         -0.4331842947       -3.7288351486        0.1542919481
 C         -0.1101263370       -3.6175501662        1.4987929029
 C         -0.8050355415       -2.7459412016        2.3213132841
 C         -1.8412649037       -1.9879164185        1.8005579925
 H         -2.3970518673       -1.2908086283        2.4075090917
 H         -0.5413329312       -2.6406486677        3.3611838516
 H          0.6863081852       -4.2159834914        1.9136373018
 H          0.1162507055       -4.4036245422       -0.4825291573
 H         -1.7522674296       -3.0369239021       -1.4090458039
 H         -3.6281860069       -0.6089459650       -2.3642709254
 H         -3.3129837187        1.5486457750       -3.2915534907
 H         -2.2366657545        3.7575835648       -3.0878624326
 H         -0.7357681939        4.2454000276       -1.2071436967
 C          0.0075616769        2.4945997604        0.8348825204
 H         -0.5604122647        2.2812196407        1.7523773060
 C          0.5945035430        3.8853936899        0.9360983993
 C         -0.2175566326        4.9950196450        1.5312248053
 C          0.9455532704        4.4283048787        2.2872850417
 H          1.8385696509        5.0269541663        2.3863087488
 H          0.7435840265        3.8011813179        3.1437136830
 H         -0.1228062271        5.9861206185        1.1140694471
 H         -1.2122205962        4.7556306309        1.8767417089
 H          1.2612566666        4.1212748596        0.1155271280
 O          2.0076936383        2.2961820231       -1.2421469345
