  62
        -98.94160376
 C          2.1261650100        0.8078982704        0.2805053005
 C          2.9779742801        0.1904411407        1.2314300706
 C          3.7783051701       -0.9429081394        0.7497242909
 C          3.6115323701       -1.3725165297       -0.5140453790
 C          4.4000812202       -2.4763869598       -1.1556064088
 C          5.6522724001       -1.9288462099       -1.8553364289
 C          6.4832445201       -0.9836261796       -0.9873669992
 H          7.3542984200       -0.6852640597       -1.5746271393
 H          5.9039518700       -0.0784593396       -0.7908559394
 C          6.9474633802       -1.5875994293        0.3454159310
 H          6.8759367202       -2.6750444793        0.3038425012
 H          7.9996743401       -1.3371856092        0.4954349809
 C          6.1892269002       -1.0768602890        1.5720247609
 H          6.7325333602       -1.3963419388        2.4651987409
 H          6.1804205501        0.0161400410        1.5686303706
 C          4.7439587902       -1.5703197191        1.7153316710
 H          4.3937467202       -1.2901835889        2.7132595710
 H          4.7168014003       -2.6590113091        1.6350322013
 H          6.2681982002       -2.7733915299       -2.1695246387
 H          5.3385007301       -1.3856904901       -2.7498513790
 H          3.7651601302       -2.9669525800       -1.8955347186
 H          4.6832846502       -3.2028249696       -0.3961264986
 O          2.7229258401       -0.8116780400       -1.3721983291
 C          1.9632319100        0.2949603901       -1.0077295294
 O          1.2025610899        0.6988370998       -1.9057912794
 O          3.0610451701        0.5683928710        2.4310136605
 C          1.3156313299        2.0072112404        0.7392165302
 C         -0.1309474001        1.8403132003        0.3472517403
 C         -0.8208667001        2.7304442500       -0.4639815299
 C         -2.1460578301        2.4972526199       -0.7884193998
 C         -2.8109230901        1.3831634299       -0.3111739995
 C         -2.1279591700        0.4812719302        0.4946448507
 C         -0.8029115000        0.7203711803        0.8226155206
 H         -0.2684077599        0.0135845305        1.4467883708
 N         -2.7950977599       -0.6501489997        0.9963256810
 S         -3.7053090699       -1.5843504001       -0.0613786687
 O         -3.7539080998       -2.8957402899        0.5495176016
 O         -3.1955082099       -1.5234250704       -1.4113003788
 C         -5.3256469099       -0.8494746901        0.0194101711
 C         -5.9214503699       -0.7212333799        1.2588857411
 C         -7.1829784299       -0.1537081499        1.3392000210
 C         -7.8250835800        0.2707356997        0.1853624009
 C         -7.2154717900        0.1307271995       -1.0519472591
 C         -5.9529735100       -0.4354120505       -1.1391579390
 H         -5.4370594300       -0.5590708307       -2.0782618189
 H         -7.7159934600        0.4605662192       -1.9481116191
 H         -8.8064702900        0.7133235497        0.2506013608
 H         -7.6602084599       -0.0435349097        2.2995891610
 H         -5.3899711398       -1.0668027096        2.1296989812
 H         -2.2141220898       -1.2380600896        1.5766106711
 H         -3.8406901600        1.1967247898       -0.5681889494
 H         -2.6687038202        3.1934035197       -1.4265681399
 H         -0.3145066102        3.5925897000       -0.8653204901
 H          1.3711224200        1.9644061607        1.8403780303
 C          1.9035316198        3.3500100004        0.3324349299
 C          3.3780314098        3.5114910304        0.1179144298
 C          2.4367528698        3.6126414901       -1.0428147802
 H          2.2678145697        4.5859768300       -1.4799064504
 H          2.4038171798        2.8035392999       -1.7553624500
 H          3.8542187998        4.4112093405        0.4775863796
 H          3.9951226699        2.6283406805        0.2001449600
 H          1.3989438498        4.1760948505        0.8239124297
