  62
        -98.93756408
 C         -2.2700371502       -0.6786598801       -0.1896759795
 C         -3.5741706902       -1.1615017604       -0.4708492290
 C         -4.6754966203       -0.5267214293        0.2641323600
 C         -4.3933777203        0.4192751020        1.1779075786
 C         -5.4181198904        1.1946345532        1.9530260973
 C         -5.8081751802        2.4851624922        1.2185042954
 C         -6.1577064501        2.2767907100       -0.2551645443
 H         -6.4438174299        3.2491961695       -0.6618656358
 H         -5.2614851000        1.9570437692       -0.7922303438
 C         -7.2860913401        1.2660255497       -0.5037770630
 H         -7.9740715700        1.6843624587       -1.2413857837
 H         -7.8518886402        1.1097767811        0.4153006472
 C         -6.8189543501       -0.0856947711       -1.0468801709
 H         -7.6988542601       -0.6381943015       -1.3867319202
 H         -6.1759343800        0.0711992176       -1.9168113311
 C         -6.0725377103       -0.9822414197       -0.0509992395
 H         -6.6598269704       -1.0849276683        0.8635825806
 H         -5.9684191003       -1.9710801103       -0.5070581180
 H         -6.6583985702        2.9331911330        1.7358983246
 H         -4.9691367802        3.1826868522        1.2755651845
 H         -4.9916332305        1.4537641547        2.9234464570
 H         -6.2972105104        0.5718535935        2.1069096682
 O         -3.1270009303        0.8106912324        1.4686692382
 C         -2.0322004803        0.2819274713        0.7939941991
 O         -0.9393301903        0.7423964318        1.1747689185
 O         -3.8040291002       -2.0845714517       -1.2967600876
 C         -1.1179294002       -1.2867927613       -0.9679615685
 C          0.0288407697       -1.6254920101       -0.0491831479
 C         -0.1938180805       -2.5237232985        0.9915927834
 C          0.8207903294       -2.8526027273        1.8682724640
 C          2.0807207794       -2.3001584176        1.7207954634
 C          2.3189674596       -1.4151909591        0.6758546221
 C          1.2959979297       -1.0859556804       -0.2025590185
 H          1.4980920499       -0.3766603215       -0.9861049095
 N          3.6119681497       -0.8976312595        0.4797935015
 S          3.8782642098        0.6232328695       -0.1947784108
 O          3.2972121898        1.6641774807        0.6234859276
 O          3.4900652800        0.6010023575       -1.5823255508
 C          5.6581729298        0.6768002795       -0.0791885206
 C          6.3982603999       -0.0340811319       -1.0051161795
 C          7.7805776899       -0.0215570418       -0.9108548894
 C          8.3975147598        0.6977703496        0.1020905197
 C          7.6422888597        1.4086989510        1.0223418785
 C          6.2588064698        1.3986253310        0.9343951484
 H          5.6313605497        1.9426165121        1.6222434775
 H          8.1244025897        1.9699274522        1.8065442277
 H          9.4737198198        0.7067320897        0.1729224598
 H          8.3711634799       -0.5709131429       -1.6260991485
 H          5.8753332599       -0.5703594630       -1.7795189788
 H          4.2020105196       -1.0234335883        1.2913876017
 H          2.8727439393       -2.5514797866        2.4099348438
 H          0.6300103692       -3.5409154361        2.6781284250
 H         -1.1817775305       -2.9478469583        1.1123409539
 H         -1.5249930302       -2.2337702819       -1.3623170271
 C         -0.6919892200       -0.4632563631       -2.1744983997
 C         -1.6464187099        0.4599203559       -2.8690316011
 C         -0.4914266699        1.0196190770       -2.0967918718
 H          0.3380645602        1.4523608461       -2.6380378024
 H         -0.6832083100        1.5004223784       -1.1497050526
 H         -1.6194077697        0.5095490543       -3.9471186412
 H         -2.6369378499        0.5648266566       -2.4503653814
 H         -0.0034427400       -1.0075283241       -2.8143515488
