  62
        -98.94391812
 C          1.9330768532        0.9127149844       -0.3783851468
 C          0.9511770067        1.4930731421       -1.2104230877
 C          0.1306666077        2.5645493765       -0.6194985721
 C          0.3414529527        2.9118419597        0.6620174039
 C         -0.4085776949        3.9336626559        1.4724583036
 C         -1.5693140801        3.2770689418        2.2405388214
 C         -2.8927431351        3.2363012772        1.4796280842
 H         -3.6008267363        2.6718099323        2.0908950991
 H         -3.2819995913        4.2511809539        1.3700749609
 C         -2.8026878463        2.5774170232        0.1015497586
 H         -2.1686267668        1.6932456723        0.1842085853
 H         -3.8006538988        2.2323218575       -0.1771236890
 C         -2.2760759637        3.5222758113       -0.9891326114
 H         -2.9616868759        3.5077882263       -1.8389407540
 H         -2.2802236402        4.5426962942       -0.6061550039
 C         -0.8834947175        3.1874829195       -1.5415299174
 H         -0.4454427242        4.0959168846       -1.9696065041
 H         -0.9816735291        2.4747380500       -2.3666726217
 H         -1.2721580063        2.2556558009        2.4957492652
 H         -1.7264516970        3.8196557300        3.1753432218
 H          0.3040720081        4.3372178830        2.1950077894
 H         -0.7634408425        4.7434902531        0.8412191816
 O          1.2909101218        2.3181356250        1.4351691148
 C          2.0817760820        1.2907946075        0.9559171881
 O          2.8776992660        0.8205239482        1.7923005422
 O          0.7545134868        1.1211501602       -2.4014347541
 C          2.7599876173       -0.2491921501       -0.9062653594
 C          2.4075685925       -1.4719716783       -0.0944194119
 C          3.3325429059       -2.2952226497        0.5314340436
 C          2.9015196135       -3.3323243321        1.3424783868
 C          1.5549230817       -3.5463571106        1.5714150129
 C          0.6204056534       -2.7367111138        0.9331057349
 C          1.0558735430       -1.7468447192        0.0714966928
 H          0.3306529422       -1.1299144503       -0.4335056602
 N         -0.7557526583       -2.9013987582        1.1442054668
 S         -1.7987243308       -1.5836302858        1.1587192035
 O         -1.1079079336       -0.3384540706        1.3886026275
 O         -2.8113500501       -1.9422190399        2.1311802941
 C         -2.5415729613       -1.6352116583       -0.4602459135
 C         -2.1628777521       -0.7528032700       -1.4506377788
 C         -2.7634658743       -0.8416300664       -2.6969852902
 C         -3.7285372945       -1.8074075585       -2.9331223389
 C         -4.1013612687       -2.6874460702       -1.9277977290
 C         -3.5041740917       -2.6024511316       -0.6813556218
 H         -3.7739899141       -3.2555421445        0.1317734821
 H         -4.8543413226       -3.4366148234       -2.1120402376
 H         -4.1924763313       -1.8718371804       -3.9046758435
 H         -2.4630863307       -0.1552332710       -3.4726947481
 H         -1.4082771500       -0.0081310916       -1.2512306450
 H         -0.9953337883       -3.5670935765        1.8640319315
 H          1.2263310201       -4.3253099029        2.2427250177
 H          3.6284409351       -3.9648795080        1.8294791353
 H          4.3874369180       -2.1155936958        0.4035584109
 H          2.4248580992       -0.4051141372       -1.9422489099
 C          4.2358928942        0.0814358316       -0.9090206219
 C          5.1575290054       -0.6000766924       -1.8747795263
 C          4.8077967850        0.8443748316       -2.0649245307
 H          5.5622153430        1.5906274344       -1.8660559804
 H          4.1341119971        1.1081277184       -2.8670193098
 H          6.1567230258       -0.8454097463       -1.5481204197
 H          4.7255866147       -1.3190831357       -2.5541341810
 H          4.6105284520        0.3173632989        0.0805939580
