  62
        -98.94318584
 C         -0.8243709014       -1.6874231193       -0.8452218322
 C         -1.9641635719       -2.0593485190       -0.0861212629
 C         -3.1125818512       -1.1504036481       -0.1454271025
 C         -3.0435086501       -0.0420954176       -0.9046791016
 C         -4.1400314893        0.9713489734       -1.0921864312
 C         -4.2124017988        2.0297509526        0.0165110796
 C         -4.7436702395        1.5324393420        1.3611044991
 H         -4.9472809590        2.4141219717        1.9719749297
 H         -5.6923824799        1.0163488429        1.2106631284
 C         -3.7725791805        0.6183970307        2.1215298186
 H         -2.7686262403        0.7226598903        1.7030863290
 H         -3.7183440005        0.9310479699        3.1666943289
 C         -4.1592330316       -0.8605376790        2.1114731774
 H         -5.1009635819       -0.9981106886        2.6478303770
 H         -3.3849376422       -1.4219457500        2.6407972572
 C         -4.3041492617       -1.4635525878        0.7081489069
 H         -4.3660320825       -2.5502098878        0.8063282261
 H         -5.2173600612       -1.1026713567        0.2352081969
 H         -4.8700730380        2.8270404434       -0.3371113500
 H         -3.2154049385        2.4498635618        0.1564820402
 H         -5.0992786796        0.4587516942       -1.1725570519
 H         -3.9360008986        1.4764204540       -2.0384972708
 O         -1.9424450997        0.2726241121       -1.6339133811
 C         -0.8000257503       -0.5230844088       -1.6148785514
 O          0.1207414703       -0.0806818189       -2.3236563808
 O         -2.0195012529       -3.1141477695        0.6020681163
 C          0.3788658979       -2.6067961403       -0.7410255626
 C          1.2509737478       -2.2010606519        0.4200714380
 C          1.6954344969       -3.1423490029        1.3414143574
 C          2.4906144968       -2.7612981343        2.4075140679
 C          2.8680632178       -1.4401049647        2.5649895690
 C          2.4256585488       -0.4899651137        1.6512078596
 C          1.6131231388       -0.8727571423        0.5941906191
 H          1.2716631996       -0.1297771115       -0.1098849005
 N          2.7683533198        0.8619797559        1.7911948307
 S          3.1038862809        1.7696541667        0.4218823815
 O          3.7314186606        0.9650321670       -0.5993072490
 O          3.8941651516        2.8783607557        0.9195385825
 C          1.5337861616        2.4076004583       -0.1145289785
 C          0.6424055816        2.8504463383        0.8431419016
 C         -0.5490401078        3.4237736795        0.4317001217
 C         -0.8247807373        3.5483818407       -0.9223529383
 C          0.0800515026        3.0975900707       -1.8688925084
 C          1.2740824720        2.5218463095       -1.4644395485
 H          1.9929080119        2.1407097295       -2.1715606786
 H         -0.1407333470        3.1779504417       -2.9208943684
 H         -1.7519184869        3.9973030317       -1.2438202082
 H         -1.2565052477        3.7734262895        1.1676014217
 H          0.8903794812        2.7366682673        1.8856558616
 H          3.4086957598        1.0673168049        2.5445443610
 H          3.4955514178       -1.1415136559        3.3909308894
 H          2.8261659861       -3.5003218051        3.1191127274
 H          1.4011906861       -4.1750183726        1.2247412965
 H         -0.0410776030       -3.5977594602       -0.5029381635
 C          1.1605681181       -2.7526079600       -2.0376450525
 C          2.4610911487       -2.0654726908       -2.3117557516
 C          2.4360260875       -3.5426083409       -2.0648018927
 H          2.6149404372       -4.2094248804       -2.8947853432
 H          2.8235598970       -3.8961575319       -1.1210891929
 H          2.6300850593       -1.7094171201       -3.3169864913
 H          2.8797928290       -1.4139442317       -1.5597524110
 H          0.4984576983       -2.8705980988       -2.8901618928
