  62
        -98.92841651
 C         -2.3122189270       -1.4028528112        0.0370588175
 C         -2.2769260563        0.0101997679       -0.0053341725
 C         -3.5837200080        0.7029349276       -0.0290508052
 C         -4.7148591435       -0.0231884794       -0.0066304790
 C         -6.1466689406        0.4493371529       -0.0308341156
 C         -6.4846870491        1.5729098845       -1.0227691430
 C         -6.7845739469        2.9113522488       -0.3458054175
 H         -7.4066320741        3.5097689622       -1.0150540181
 H         -7.3675346815        2.7207450595        0.5575910159
 C         -5.5566061647        3.7465945835        0.0124992657
 H         -5.1143444360        4.1499722630       -0.9010890716
 H         -5.8967961058        4.5951796425        0.6106425598
 C         -4.4652978659        3.0065485164        0.7887869001
 H         -3.8709876251        3.7517008589        1.3219135213
 H         -4.9063176358        2.3542460397        1.5415544381
 C         -3.5093723141        2.2036568960       -0.1064317557
 H         -3.6294927277        2.5091948615       -1.1502800175
 H         -2.4731835877        2.4410774754        0.1560054320
 H         -5.6770984907        1.6856538621       -1.7445231648
 H         -7.3738077451        1.2700533026       -1.5781413222
 H         -6.7334243582       -0.4417455027       -0.2652119272
 H         -6.4296974807        0.7504649240        0.9807805358
 O         -4.6992984617       -1.3851030979        0.0750032087
 C         -3.5187856359       -2.1020690604        0.1110017460
 O         -3.6709451687       -3.3352200921        0.2140371194
 O         -1.2127646451        0.6834199491       -0.0192933880
 C         -1.0446240585       -2.2393172327        0.0540765335
 C         -0.0268997917       -1.6332299162        0.9892255886
 C         -0.3533969080       -1.5115138164        2.3374823265
 C          0.5384095358       -0.9518947551        3.2308972057
 C          1.7757912634       -0.5078499941        2.7997947410
 C          2.1175803423       -0.6368024887        1.4585688097
 C          1.2197454910       -1.2023892115        0.5640105439
 H          1.4957562445       -1.2646645138       -0.4742524835
 N          3.3946025226       -0.2400426760        1.0211891723
 S          3.6542967323        0.3842647189       -0.5228934490
 O          2.9026386990        1.6030534119       -0.7225720305
 O          3.4630982046       -0.6605238843       -1.4964616753
 C          5.3940078668        0.7580051145       -0.3878824498
 C          6.3006762957       -0.2788537507       -0.5014493790
 C          7.6526646763       -0.0045878147       -0.3716025983
 C          8.0740274448        1.2949034858       -0.1311216368
 C          7.1530813268        2.3256637087       -0.0216451021
 C          5.7990789190        2.0573924175       -0.1494666805
 H          5.0476280735        2.8276507746       -0.0802244916
 H          7.4836597606        3.3353178356        0.1619113643
 H          9.1269662691        1.5060670463       -0.0312186361
 H          8.3719640996       -0.8028870504       -0.4585819571
 H          5.9270097580       -1.2703328185       -0.6968368637
 H          3.8698911844        0.3334352994        1.7055294776
 H          2.4706099982       -0.0629755365        3.4961674250
 H          0.2672212940       -0.8536858820        4.2715348202
 H         -1.3264346847       -1.8482400723        2.6704826181
 H         -1.3515386440       -3.2109808764        0.4769157363
 C         -0.4808987287       -2.5271551296       -1.3295716417
 C         -1.3668464274       -2.5991668375       -2.5361563364
 C         -0.3902896757       -1.4727963832       -2.3897298822
 H          0.4868813217       -1.4568181081       -3.0209802174
 H         -0.7640198357       -0.4896874433       -2.1488963516
 H         -1.1668551867       -3.3629564741       -3.2724426402
 H         -2.4174884351       -2.3865136267       -2.4007858272
 H          0.3340441508       -3.2442687612       -1.2924836058
