  62
        -98.94492652
 C         -2.2087602363       -0.9993016313        0.5339216028
 C         -2.2901812243       -0.1356741624       -0.5855615418
 C         -3.0766694105        1.0888555409       -0.3872196877
 C         -3.6306315757        1.3433942029        0.8121368139
 C         -4.4416401329        2.5579221311        1.1747752742
 C         -5.9216132574        2.4609205060        0.7794254968
 C         -6.2050975965        2.5847837786       -0.7181320348
 H         -7.2825677275        2.7213128013       -0.8292488093
 H         -5.7215433168        3.4823471108       -1.1050425892
 C         -5.7742385733        1.3671949090       -1.5477743645
 H         -6.5753113133        1.0958216104       -2.2388447134
 H         -5.6182858587        0.5120411472       -0.8862099904
 C         -4.5112411815        1.5825290773       -2.3819012522
 H         -4.6966079116        2.3481805791       -3.1384751585
 H         -4.2770970886        0.6482720217       -2.8983534213
 C         -3.2783915398        1.9926387827       -1.5657449651
 H         -2.3954613367        1.9049011269       -2.2044366497
 H         -3.3696403365        3.0289332772       -1.2399301116
 H         -6.3199271873        1.5132036359        1.1488287144
 H         -6.4489003776        3.2668439547        1.2949638389
 H         -4.3810797266        2.6588770660        2.2606745136
 H         -3.9984251439        3.4439273799        0.7188878751
 O         -3.4923282714        0.5064279704        1.8755016056
 C         -2.7913619433       -0.6844039221        1.7604884128
 O         -2.7479401830       -1.3582631703        2.8105366640
 O         -1.7356577071       -0.3710957754       -1.6900679910
 C         -1.4330087215       -2.2999903487        0.4297008840
 C          0.0018116898       -2.0176473271        0.0526931643
 C          0.6920720400       -2.7296888456       -0.9191202475
 C          2.0049924974       -2.4108766580       -1.2209871727
 C          2.6586897048       -1.3870242686       -0.5609047918
 C          1.9793280407       -0.6713416583        0.4164077234
 C          0.6664900141       -0.9957968066        0.7195246796
 H          0.1378392309       -0.4339844385        1.4811533603
 N          2.6375136188        0.3643120907        1.1049664990
 S          3.4007704742        1.5531724583        0.1940601441
 O          3.4277856023        2.7207451568        1.0490936205
 O          2.7802536558        1.7165840113       -1.0998322132
 C          5.0604068527        0.9356630656        0.0059414140
 C          5.5930455539        0.7637474662       -1.2566307820
 C          6.8880566762        0.2837848838       -1.3776332746
 C          7.6232415687       -0.0130999417       -0.2402585653
 C          7.0747248215        0.1685579929        1.0207177728
 C          5.7813201019        0.6489054390        1.1486631805
 H          5.3191635998        0.8083369989        2.1085445839
 H          7.6496081035       -0.0627398630        1.9029058155
 H          8.6299094200       -0.3879265273       -0.3371647743
 H          7.3162739598        0.1430633646       -2.3570401115
 H          4.9812288168        1.0029905948       -2.1119799207
 H          2.0710688479        0.7890131448        1.8253711230
 H          3.6784073925       -1.1318044333       -0.7983143788
 H          2.5267755136       -2.9683898175       -1.9837435602
 H          0.1991345305       -3.5280133128       -1.4488884118
 H         -1.4393408121       -2.7400253873        1.4379942905
 C         -2.1327345109       -3.2491561145       -0.5209591957
 C         -2.0200652390       -4.7310179861       -0.3296684438
 C         -3.3091997575       -4.0316861544       -0.0228072070
 H         -4.1489633772       -4.1786168920       -0.6853022167
 H         -3.5887005247       -3.8995625853        1.0126331432
 H         -1.9780577687       -5.3624468115       -1.2042809406
 H         -1.4269128789       -5.0841936926        0.5001665251
 H         -2.1807774347       -2.8624219185       -1.5325047422
