  62
        -98.93964217
 C          2.6466290908        0.6581527895        0.6165889763
 C          2.9641553098        0.0654522029       -0.6297124609
 C          3.3765589451       -1.3449067284       -0.5789794827
 C          3.4397735555       -1.9724730292        0.6095344759
 C          3.7812966707       -3.4217800001        0.7971851070
 C          2.5178210575       -4.2939271329        0.7814738165
 C          1.5859298783       -4.0105960109       -0.3971004583
 H          0.7447360600       -4.7028084670       -0.3202940538
 H          1.1809748077       -3.0004689280       -0.2989373216
 C          2.2444171069       -4.1573527129       -1.7760227361
 H          1.5688048188       -4.7133787859       -2.4292155987
 H          3.1623080124       -4.7396936063       -1.6880740148
 C          2.5509902840       -2.8327003863       -2.4775480761
 H          1.6558821974       -2.2050013889       -2.4866971236
 H          2.8077009025       -3.0502376388       -3.5177208621
 C          3.7048914762       -2.0150083904       -1.8833058544
 H          4.5905855793       -2.6454528875       -1.7824156661
 H          3.9343489237       -1.2075761300       -2.5847526151
 H          1.9641393117       -4.1170142416        1.7065087581
 H          2.8222202920       -5.3418476517        0.7629232908
 H          4.2796670371       -3.5363361753        1.7612177795
 H          4.4617865757       -3.7345033690        0.0078376417
 O          3.1398229193       -1.3644962338        1.7865320028
 C          2.7187633136       -0.0450280269        1.8180714824
 O          2.4359031238        0.3784454518        2.9581983944
 O          2.9033652296        0.6774649701       -1.7271557783
 C          2.1747143950        2.1000256648        0.6676512681
 C          0.9167959756        2.2548157094       -0.1542646899
 C          0.7280334123        3.2677966093       -1.0839143287
 C         -0.4537327527        3.3470732426       -1.8012683295
 C         -1.4675895691        2.4274799364       -1.6094504276
 C         -1.2961326681        1.4180476032       -0.6699678950
 C         -0.1147426745        1.3462839559        0.0524006234
 H          0.0198991211        0.5618936085        0.7885125967
 N         -2.3123816946        0.4592605793       -0.4709163509
 S         -3.8795554508        1.0455654283       -0.2253922415
 O         -4.4020991641        1.4983558868       -1.4893998301
 O         -3.8861125514        2.0186051271        0.8453828543
 C         -4.7230363040       -0.4406477455        0.2763119169
 C         -5.0040003837       -0.6481801273        1.6130089335
 C         -5.6472699842       -1.8172955103        1.9886115978
 C         -5.9928563918       -2.7543625517        1.0266859221
 C         -5.7030029365       -2.5317457619       -0.3115338786
 C         -5.0622163405       -1.3642916692       -0.6941776680
 H         -4.8257353890       -1.1443964802       -1.7220359401
 H         -5.9751058218       -3.2623212547       -1.0561260219
 H         -6.4940078023       -3.6626998844        1.3218761465
 H         -5.8762323816       -1.9915026405        3.0276834863
 H         -4.7228667931        0.1109589748        2.3255207694
 H         -2.0722250522       -0.1801418801        0.2755879024
 H         -2.3901901543        2.4832609888       -2.1635392169
 H         -0.5857723135        4.1363953306       -2.5260019001
 H          1.5066442224        3.9932008656       -1.2528916309
 H          1.9179203585        2.3001296720        1.7186606388
 C          3.2919568785        3.0347332773        0.2546107882
 C          3.3456277808        4.4308391914        0.7958762332
 C          4.3321788610        3.4059722467        1.2667667408
 H          5.3591119362        3.4897013379        0.9443744360
 H          4.2191174854        3.0040437199        2.2634206929
 H          3.6987513726        5.2213783736        0.1510405064
 H          2.5648530664        4.7333195846        1.4775186771
 H          3.6224422485        2.8644376934       -0.7634027745
