  62
        -98.94210683
 C          1.3175582779        1.2975770042        0.8161009912
 C          2.2905561927        0.8801277697       -0.1199334464
 C          2.9458646270       -0.4149345801        0.1398349901
 C          2.5472927245       -1.1603615796        1.1865705728
 C          3.0135828685       -2.5099633008        1.6918258778
 C          3.9410769753       -3.3800351665        0.8491556986
 C          3.2981525958       -3.9622673138       -0.4098584722
 H          4.0759638263       -4.4638258812       -0.9905243263
 H          2.5680688402       -4.7178560929       -0.1082320302
 C          2.5727333546       -2.9657068597       -1.3114317396
 H          2.1509506933       -3.5243563699       -2.1525273352
 H          1.7269452057       -2.5218083972       -0.7807297075
 C          3.4431952197       -1.8510339083       -1.8875594117
 H          2.8325745344       -1.3006316667       -2.6090368413
 H          4.2897856144       -2.2850061239       -2.4246031818
 C          3.9788810308       -0.8351862250       -0.8659789483
 H          4.8711564999       -1.2085696735       -0.3690341644
 H          4.2595315249        0.0710101029       -1.4113385947
 H          4.8463650340       -2.8340177483        0.6005850577
 H          4.2412612146       -4.2198941748        1.4819054231
 H          3.4983353661       -2.3157271047        2.6552714308
 H          2.1009130761       -3.0735154179        1.9124969054
 O          1.5860173263       -0.7247471199        2.0525370824
 C          0.9438708967        0.4887472119        1.8859305776
 O          0.0714133302        0.7289105706        2.7464148389
 H         -1.1191691854        0.6050675900        0.0686993936
 C         -1.0421395562        1.2572578625       -0.7875630880
 C         -0.2465964260        2.3936669899       -0.6974390968
 C         -0.1684681029        3.2404181434       -1.7933035307
 C         -0.8357209934        2.9212375912       -2.9646784748
 C         -1.5683244844        1.7539949368       -3.0723030451
 C         -1.6691901134        0.9091886222       -1.9704078718
 N         -2.4079101367       -0.2781192376       -2.0376539620
 S         -2.1189997586       -1.5749397043       -1.0222199885
 O         -0.7291817297       -1.6990715313       -0.6526905848
 O         -2.6895443356       -2.7023564910       -1.7312222767
 C         -3.1418888475       -1.2175571775        0.3897393876
 C         -2.5927315488       -1.0865287802        1.6480535081
 C         -3.4270735014       -0.7981231789        2.7174216527
 C         -4.7896199544       -0.6529874753        2.5114753831
 C         -5.3287197786       -0.7969024850        1.2412054988
 C         -4.4994076771       -1.0807682683        0.1694572554
 H         -4.8770546586       -1.2059269681       -0.8315474994
 H         -6.3896131748       -0.6856486643        1.0850992713
 H         -5.4334827416       -0.4266719645        3.3467290770
 H         -2.9972152127       -0.6795537499        3.6992500690
 H         -1.5266492837       -1.1917572404        1.7810433383
 H         -2.7015501258       -0.5593397014       -2.9605525313
 H         -2.0537581400        1.4907604515       -3.9996019157
 H         -0.7624114548        3.5809091104       -3.8161282070
 H          0.4299680695        4.1348995224       -1.7410797403
 C          0.5297610461        2.5779590585        0.5850879039
 H         -0.1852668200        2.6509188108        1.4171716557
 C          1.4279714159        3.7944561060        0.5969285354
 C          0.8582233019        5.1401972012        0.9283464494
 C          1.7536725980        4.4436260177        1.9072328281
 H          2.7520622882        4.8256870313        2.0582942443
 H          1.3106503521        4.0180286355        2.7959941808
 H          1.2427557739        6.0053057751        0.4098086574
 H         -0.1956372724        5.1936370724        1.1557871853
 H          2.2176848815        3.7381839571       -0.1426439910
 O          2.6132243009        1.5577506192       -1.1314002648
