  62
        -98.94422005
 C         -2.0562921046       -1.3019060331       -0.1060369496
 C         -2.4454319259       -0.2590688490       -0.9814573310
 C         -3.8439378900        0.1766391344       -0.8695512888
 C         -4.6687527855       -0.4251946104        0.0059477620
 C         -6.1240924505       -0.1071270452        0.2166383344
 C         -6.3736393617        1.0682013185        1.1716190060
 C         -6.0340945027        2.4483526379        0.6072832607
 H         -6.5275648357        2.5773396240       -0.3565485453
 H         -6.4572298929        3.1870160914        1.2909636898
 C         -4.5303217999        2.7194642389        0.4582577239
 H         -4.2978622129        3.7118228321        0.8513545926
 H         -3.9677204225        2.0001437884        1.0581818020
 C         -4.0163783649        2.6714779643       -0.9807958585
 H         -4.4712228706        3.4786723020       -1.5594234344
 H         -2.9357922447        2.8368406997       -0.9633616606
 C         -4.2817476869        1.3435402853       -1.7020897626
 H         -5.3380767426        1.2574063856       -1.9557034900
 H         -3.6970923111        1.3325233002       -2.6252286287
 H         -7.4345451712        1.0568328177        1.4319320059
 H         -5.8045780052        0.9001372211        2.0888804342
 H         -6.5983474981        0.0958854246       -0.7439215801
 H         -6.5785258988       -1.0021258007        0.6469603989
 O         -4.2610705412       -1.4390311386        0.8146276479
 C         -2.9480144454       -1.8772254531        0.8025414655
 O         -2.7012128297       -2.7784078684        1.6287423519
 O         -1.6799871272        0.2819294914       -1.8215855125
 C         -0.6251090556       -1.8146437450       -0.0788363730
 C          0.2605436450       -0.7186501801        0.4609832028
 C          0.3139632855       -0.5045227378        1.8354123087
 C          1.0942039960        0.5066660167        2.3644009768
 C          1.8356171815        1.3282600735        1.5329217944
 C          1.7811711537        1.1271434739        0.1607643378
 C          1.0068890132        0.1033545247       -0.3684984091
 H          0.9649068706       -0.0323452886       -1.4372838027
 N          2.5489592555        1.9513351836       -0.6866281598
 S          4.1963464910        1.9629071802       -0.3793347027
 O          4.4718448710        2.8398884158        0.7308312842
 O          4.8253548976        2.3114959509       -1.6336213216
 C          4.5674354293        0.2765317647        0.0701193443
 C          4.4767122377       -0.6911864885       -0.9108193871
 C          4.6848848011       -2.0164407562       -0.5666085914
 C          4.9726039081       -2.3503053018        0.7480778614
 C          5.0622876686       -1.3670217134        1.7207792302
 C          4.8546910962       -0.0394013725        1.3820695490
 H          4.9127826451        0.7554843805        2.1072888222
 H          5.2872448911       -1.6301625168        2.7417701288
 H          5.1281221901       -3.3838519441        1.0147546402
 H          4.6163311228       -2.7838847882       -1.3208383178
 H          4.2570795557       -0.3948092456       -1.9239671558
 H          2.3705735102        1.7874944677       -1.6671074797
 H          2.4526632383        2.1214225688        1.9234369729
 H          1.1265506275        0.6579495234        3.4326723521
 H         -0.2728736750       -1.1411627260        2.4832915774
 H         -0.6170042165       -2.6415444736        0.6434385548
 C         -0.1830350411       -2.3407843536       -1.4288584676
 C          1.0915410717       -3.1236152690       -1.5240060342
 C         -0.2276769772       -3.8142424029       -1.6927166362
 H         -0.5121161934       -4.1517707853       -2.6782063197
 H         -0.5772586867       -4.4542814786       -0.8958961002
 H          1.7143672528       -2.9895573833       -2.3951817572
 H          1.6407903423       -3.2900694929       -0.6097140169
 H         -0.4385441664       -1.6835917425       -2.2506758052
