  62
        -98.93900426
 C         -1.7205668998       -0.8436406404        0.1220258298
 C         -3.0221326698       -1.1787547406        0.5638178897
 C         -4.0057058400       -0.0859321207        0.5654155595
 C         -3.6193675201        1.1436826393        0.1785784695
 C         -4.5218871103        2.3378299992        0.0505467193
 C         -5.3471292002        2.2355177790       -1.2482648208
 C         -6.8520434202        2.0788087888       -1.0291676109
 H         -7.2949700301        1.8056940286       -1.9893563009
 H         -7.2704261003        3.0441573687       -0.7365642010
 C         -7.2713869201        1.0487039888        0.0243995692
 H         -8.3357915501        0.8561476286       -0.1259244009
 H         -7.1718575103        1.4814310289        1.0209718791
 C         -6.5209213399       -0.2890598311       -0.0064208807
 H         -6.1151308598       -0.4803464011       -1.0001438606
 H         -7.2382959898       -1.0854936912        0.2018373993
 C         -5.3948717600       -0.4156960509        1.0369365894
 H         -5.3386247299       -1.4577862608        1.3652917095
 H         -5.6386671802        0.1916420292        1.9129543794
 H         -4.9723077300        1.3882074890       -1.8264309207
 H         -5.1819071903        3.1265439689       -1.8558727808
 H         -3.8881432904        3.2244390593        0.0288039793
 H         -5.1773813204        2.3981491792        0.9164496492
 O         -2.3534106802        1.4300872295       -0.2223648904
 C         -1.3742553900        0.4485322196       -0.2689906803
 O         -0.2635012900        0.8491274698       -0.6627924102
 O         -3.3439509397       -2.3366850606        0.9448057097
 C         -0.6609756897       -1.9287261903        0.0667377400
 C          0.5338105502       -1.5397385400        0.9007357200
 C          0.3327742200       -1.1632797999        2.2272271100
 C          1.3971404599       -0.8033584997        3.0296736200
 C          2.6866883299       -0.8042712996        2.5253675402
 C          2.8998672401       -1.1840769796        1.2067428402
 C          1.8278805802       -1.5590961499        0.4061244701
 H          2.0258968004       -1.8461750599       -0.6123847198
 N          4.2018709602       -1.2268711495        0.6746002703
 S          4.5718478802       -0.4068564895       -0.7370703897
 O          3.7564811503       -0.8934263297       -1.8186991497
 O          6.0009262002       -0.5752426593       -0.8889774196
 C          4.2149712399        1.3048257604       -0.3828463299
 C          2.9071718898        1.7462176102       -0.3940221800
 C          2.6499649096        3.0677706802       -0.0613611401
 C          3.6914367394        3.9184022404        0.2740126299
 C          4.9996050495        3.4572505006        0.2812011100
 C          5.2650738297        2.1377717506       -0.0450790098
 H          6.2657284098        1.7366430908       -0.0572961397
 H          5.8094230794        4.1199440807        0.5409353801
 H          3.4815509893        4.9452190304        0.5296315198
 H          1.6276282595        3.4114072301       -0.0688396003
 H          2.1008454899        1.0792783001       -0.6554947400
 H          4.9259552101       -1.0543295393        1.3581902704
 H          3.5201793098       -0.5187676694        3.1491467602
 H          1.2234432498       -0.5140321697        4.0551244900
 H         -0.6754505600       -1.1567664301        2.6188588599
 H         -1.1255196496       -2.8141197603        0.5261847500
 C         -0.3173194695       -2.2553740803       -1.3713375500
 C          0.1743236007       -3.6231382503       -1.7357937298
 C         -1.2028825993       -3.1899542505       -2.1372121100
 H         -1.3963293893       -2.9802592206       -3.1786235300
 H         -2.0464569393       -3.6145300106       -1.6125261200
 H          0.9322457608       -3.7089299902       -2.5001149598
 H          0.2660998408       -4.3486228302       -0.9415800498
 H          0.0957269104       -1.4084475003       -1.9092680500
