  62
        -98.94492061
 C         -1.9611284666       -0.8522514896        0.0687752012
 C         -2.2608418872        0.1106199205        1.0595958042
 C         -2.3490991750        1.5016361542        0.5992936555
 C         -2.1115570612        1.7806172161       -0.6956465144
 C         -2.1974589123        3.1494132981       -1.3060180593
 C         -3.6053571687        3.4332657121       -1.8483871707
 C         -4.7236897396        3.1198959765       -0.8544674285
 H         -5.6684579947        3.3847602440       -1.3337911844
 H         -4.7448171778        2.0431537375       -0.6719631416
 C         -4.6055149724        3.8577562841        0.4863200129
 H         -3.9287571491        4.7066318507        0.3835922787
 H         -5.5865030382        4.2542755522        0.7559764948
 C         -4.1438624607        2.9821402734        1.6526714420
 H         -4.3016180063        3.5389120388        2.5801257154
 H         -4.7610984407        2.0816868749        1.7017665181
 C         -2.6710958349        2.5532489591        1.6238348637
 H         -2.4334023603        2.1058540475        2.5937372312
 H         -2.0320133449        3.4287492563        1.4885005599
 H         -3.6570357746        4.4840700535       -2.1389278750
 H         -3.7598178066        2.8242449133       -2.7419310928
 H         -1.9270035890        3.8906480860       -0.5561788563
 H         -1.4796160500        3.2003635957       -2.1266363267
 O         -1.8123967684        0.8306650431       -1.6176882361
 C         -1.7155324106       -0.5041176726       -1.2597027355
 O         -1.4264375454       -1.2701904624       -2.1994316888
 O         -2.4433417709       -0.1812737744        2.2742728153
 C         -1.7979224368       -2.3051828091        0.4759488949
 C         -0.3955903754       -2.7610769282        0.1529767508
 C         -0.1007251777       -3.9948670910       -0.4123212429
 C          1.2074009240       -4.3281462605       -0.7197640579
 C          2.2405478473       -3.4403157934       -0.4851860378
 C          1.9575863137       -2.2110188472        0.1006793952
 C          0.6524616978       -1.8935772627        0.4343466448
 H          0.4462624035       -0.9345155038        0.8886228637
 N          2.9819199273       -1.2872223933        0.3774634087
 S          2.6191195578        0.3579422679        0.2444411588
 O          2.0091940131        0.7980461899        1.4754296358
 O          1.8812956700        0.6206908772       -0.9706502294
 C          4.2669920990        1.0312311649        0.1270057086
 C          4.7797239119        1.3613907396       -1.1130750585
 C          6.0732861650        1.8531709199       -1.1945623676
 C          6.8288172380        2.0022082259       -0.0413165224
 C          6.3003904224        1.6667741320        1.1965847276
 C          5.0074903974        1.1758677249        1.2852221665
 H          4.5496920206        0.9106085308        2.2238302431
 H          6.8896538664        1.7864982562        2.0912786740
 H          7.8349203160        2.3849270748       -0.1077103239
 H          6.4848212726        2.1177096717       -2.1552300772
 H          4.1511517998        1.2349514518       -1.9802246317
 H          3.8460915390       -1.5115571483       -0.0977300362
 H          3.2559284948       -3.6918385493       -0.7511925564
 H          1.4222588539       -5.2868725914       -1.1669151321
 H         -0.8963702148       -4.6896012478       -0.6262509818
 H         -1.9238019385       -2.3200373576        1.5695375828
 C         -2.8740827357       -3.1651337682       -0.1531987009
 C         -3.3698315697       -4.3938321292        0.5476054165
 C         -4.2405319958       -3.1776388074        0.4617541696
 H         -5.0996287300       -3.1997486063       -0.1917370396
 H         -4.3853884515       -2.5856827669        1.3538482148
 H         -3.6356600608       -5.2544422688       -0.0474332299
 H         -2.9311076082       -4.6344464944        1.5041130171
 H         -2.8112492662       -3.1783466439       -1.2356458290
