  62
        -98.93575630
 C         -2.5459258972       -1.2753168210        0.4174013316
 C         -2.3794291645       -0.4421612395       -0.7150504625
 C         -3.1551833664        0.8137606127       -0.7269747750
 C         -3.9629170029        1.1110052356        0.3070831737
 C         -4.8951044435        2.2822374051        0.5362366388
 C         -4.7415513002        3.5703241576       -0.2692238726
 C         -3.4405256393        4.3336282708       -0.0225399609
 H         -3.4053481683        5.1786971336       -0.7134074846
 H         -3.4581466803        4.7354326317        0.9937113486
 C         -2.1565992698        3.5198912343       -0.1722804457
 H         -1.3095978713        4.1863865067        0.0150281739
 H         -2.1222125683        2.7427931649        0.5949423780
 C         -1.9421739919        2.8749500598       -1.5409272884
 H         -2.0086942071        3.6372825540       -2.3196937465
 H         -0.9246809737        2.4712221409       -1.5564404887
 C         -2.9049955937        1.7260225426       -1.8921318465
 H         -2.4301254099        1.1165413774       -2.6664195087
 H         -3.8412110262        2.1023243895       -2.2974114263
 H         -4.8663522482        3.3700732570       -1.3292201064
 H         -5.5667306446        4.2223982306        0.0296166324
 H         -4.8181948612        2.5161201634        1.6027061314
 H         -5.9077870104        1.8954854592        0.3768734864
 O         -4.0911875727        0.2742450775        1.3787472930
 C         -3.3705315794       -0.9034329908        1.4794059088
 O         -3.5428400894       -1.5168214044        2.5519040789
 O         -1.6254299405       -0.7190430634       -1.6824137344
 C         -1.7490571370       -2.5582465528        0.5880790245
 C         -0.3084174078       -2.3018170913        0.2156883172
 C          0.3845262071       -3.0158728621       -0.7517727575
 C          1.6961366925       -2.6921581616       -1.0537555168
 C          2.3437826822       -1.6593387232       -0.4016981453
 C          1.6592091522       -0.9374713874        0.5674621496
 C          0.3504775422       -1.2710807892        0.8755443808
 H         -0.1853974707       -0.7021238754        1.6273311828
 N          2.3080276219        0.1137040913        1.2422992538
 S          3.0537194247        1.3005446302        0.3144912568
 O          3.0860809250        2.4719453033        1.1645507447
 O          2.4180657220        1.4588550389       -0.9723190133
 C          4.7137001081        0.6887588679        0.1118562744
 C          5.2435702337        0.5369015931       -1.1543507395
 C          6.5394706078        0.0618855468       -1.2855966064
 C          7.2780239169       -0.2505727045       -0.1545971251
 C          6.7320708863       -0.0892694402        1.1102856090
 C          5.4380769263        0.3866374030        1.2484141750
 H          4.9776333342        0.5300412897        2.2116073789
 H          7.3094136618       -0.3332919078        1.9874439228
 H          8.2851890504       -0.6218426436       -0.2596150542
 H          6.9656050966       -0.0631355257       -2.2680593712
 H          4.6287853628        0.7863171618       -2.0046658881
 H          1.7372404012        0.5429504236        1.9566579321
 H          3.3610333184       -1.3980566262       -0.6437438480
 H          2.2200120753       -3.2492523338       -1.8155304546
 H         -0.1105120190       -3.8054837092       -1.2923573788
 H         -1.7831852917       -2.7691948704        1.6702611900
 C         -2.3498130753       -3.7708064085       -0.1062234066
 C         -3.8232883266       -3.8587710713       -0.3666356504
 C         -2.8675661382       -3.7147193810       -1.5107686296
 H         -2.7049915729       -4.5698250938       -2.1506126812
 H         -2.8136774874       -2.7679507926       -2.0239829731
 H         -4.3133560832       -4.8094134663       -0.2188022384
 H         -4.4314537812       -3.0078479993       -0.0952413301
 H         -1.8627650352       -4.6920949663        0.1981446156
