  62
        -98.94439914
 C          2.4546506322        0.9211586606        0.0312163700
 C          2.7734465388        0.0132940726        1.0761542233
 C          3.1181206352       -1.3552645932        0.6774356895
 C          3.1361178019       -1.6706765688       -0.6297342220
 C          3.4123090273       -3.0387273844       -1.1808292049
 C          2.1119457258       -3.8326402658       -1.3680609950
 C          1.1950768738       -3.8222329930       -0.1443396143
 H          0.8073975823       -2.8102694247        0.0022230612
 H          0.3343795113       -4.4518048576       -0.3825903139
 C          1.8533527125       -4.3227343825        1.1494618021
 H          2.7455346608       -4.9021701822        0.9085953461
 H          1.1564601797       -4.9944215638        1.6550060169
 C          2.2164939045       -3.2238056332        2.1500263073
 H          1.3509067704       -2.5749955119        2.3072745845
 H          2.4506636682       -3.6991120659        3.1062815355
 C          3.4136265580       -2.3434810299        1.7696959430
 H          3.6834493626       -1.7491912453        2.6474341173
 H          4.2652432466       -2.9723311696        1.5031949530
 H          1.5579582882       -3.4015526436       -2.2057966506
 H          2.3703439936       -4.8622488926       -1.6238002592
 H          4.0803245207       -3.5691801989       -0.5049596659
 H          3.9018475042       -2.9277495998       -2.1500346444
 O          2.8586571631       -0.7713909517       -1.6049533884
 C          2.4663450184        0.5250540651       -1.3057768908
 O          2.1774220823        1.1949718750       -2.3204326790
 O          2.7688294602        0.3407589536        2.2928987591
 C          2.0051334744        2.3076635240        0.4680316212
 C          0.5011460282        2.2990011314        0.6042126386
 C         -0.1232656136        2.5405744911        1.8219134418
 C         -1.4983775914        2.4344636347        1.9439773677
 C         -2.2745165518        2.0584271594        0.8613320181
 C         -1.6567084775        1.8162551344       -0.3575961183
 C         -0.2866378499        1.9619919252       -0.4873923740
 H          0.1804057847        1.7595120622       -1.4404068994
 N         -2.4331278471        1.3287667183       -1.4450499332
 S         -2.5813074914       -0.3537846615       -1.3458015519
 O         -1.3743798347       -0.9633476727       -0.8309616646
 O         -3.0129061835       -0.7922125125       -2.6555925404
 C         -3.9084877184       -0.5489051532       -0.1775036025
 C         -3.6288414152       -0.9648882426        1.1090268410
 C         -4.6701723009       -1.0756551959        2.0173735599
 C         -5.9641713614       -0.7686543635        1.6247738260
 C         -6.2283661418       -0.3539353279        0.3276820526
 C         -5.1919082465       -0.2406337856       -0.5850183609
 H         -5.3487347970        0.0724917577       -1.6037137470
 H         -7.2360382678       -0.1173808389        0.0262870929
 H         -6.7715985963       -0.8540616420        2.3347403503
 H         -4.4658784689       -1.3974174225        3.0258757445
 H         -2.6062885529       -1.1885341601        1.3691809064
 H         -2.0065655384        1.5426196869       -2.3378948792
 H         -3.3428526654        1.9468045168        0.9508702821
 H         -1.9682022983        2.6257320258        2.8963939481
 H          0.4810028680        2.7862463175        2.6827655088
 H          2.4326767933        2.4510162523        1.4696046243
 C          2.4774932552        3.4370430589       -0.4230549428
 C          2.5334773969        4.8256776788        0.1375217283
 C          3.8020284864        4.0815662700       -0.1502259101
 H          4.4054802996        4.3888597465       -0.9909364267
 H          4.3761635709        3.7084985759        0.6852790531
 H          2.2638107981        5.6497333743       -0.5047561089
 H          2.2490884860        4.9601515351        1.1700003713
 H          2.1868396677        3.3218407131       -1.4588922148
