  62
        -98.94633894
 C         -1.7904048051       -0.7430987645        0.2286811400
 C         -3.0878594293       -0.9950748865        0.7349158363
 C         -4.0102437720        0.1480440200        0.7333102940
 C         -3.5778556590        1.3413973304        0.2859882273
 C         -4.4268526055        2.5742056291        0.1786361192
 C         -5.0899978199        2.6730852386       -1.2023362387
 C         -5.7898591869        1.3881197055       -1.6451263912
 H         -5.0407275339        0.6071995375       -1.7953852579
 H         -6.2467169941        1.5851206517       -2.6174539994
 C         -6.8616002983        0.8804391463       -0.6703648138
 H         -7.7465172977        0.5927452807       -1.2419635423
 H         -7.1594284605        1.6838233746        0.0043878207
 C         -6.4450246244       -0.3418336782        0.1499501093
 H         -6.0581082638       -1.1161577171       -0.5174493107
 H         -7.3373272019       -0.7454604435        0.6359065554
 C         -5.4033012099       -0.0858137185        1.2463669503
 H         -5.3468356943       -0.9850357862        1.8669034070
 H         -5.7281653384        0.7454393758        1.8753744697
 H         -4.3209402568        2.9148083591       -1.9396345527
 H         -5.8103901050        3.4928393752       -1.1815123675
 H         -5.1868528013        2.5548818731        0.9572497042
 H         -3.7880803310        3.4462034846        0.3279113874
 O         -2.3158378042        1.5509586787       -0.1679486990
 C         -1.3941682238        0.5156460338       -0.2207826684
 O         -0.2810779867        0.8422996404       -0.6727363318
 H          1.8665584362       -1.9175210552       -0.6314176935
 C          1.7239360069       -1.6064140300        0.3893441768
 C          0.4548791941       -1.5288995724        0.9400060277
 C          0.3275961615       -1.1195439249        2.2659803755
 C          1.4390146236       -0.7846220557        3.0136230353
 C          2.7036830183       -0.8427600017        2.4527653410
 C          2.8429162200       -1.2556195046        1.1343757412
 N          4.1165191900       -1.3511498127        0.5407422860
 S          4.4424365462       -0.4907094366       -0.8587455343
 O          3.5496496295       -0.9027818315       -1.9094137328
 O          5.8533393159       -0.7054343315       -1.0983463484
 C          4.1724857887        1.2147644882       -0.4106961317
 C          2.8845556290        1.7067345736       -0.3430442363
 C          2.6962374719        3.0162589082        0.0733192623
 C          3.7846267212        3.8043191426        0.4126255851
 C          5.0718396801        3.2927689240        0.3390504435
 C          5.2689981421        1.9848347637       -0.0712333513
 H          6.2507839142        1.5459030081       -0.1477594588
 H          5.9180771589        3.9072212092        0.6012010410
 H          3.6278110207        4.8218199766        0.7348421092
 H          1.6902637767        3.4015986547        0.1274611161
 H          2.0431704600        1.0870791431       -0.6108421340
 H          4.8771822625       -1.2178919302        1.1929608469
 H          3.5743630593       -0.5753946808        3.0322970314
 H          1.3219707291       -0.4693196958        4.0394096333
 H         -0.6613871797       -1.0669939599        2.7009686547
 C         -0.7909943206       -1.8837539400        0.1680759221
 H         -1.2803785437       -2.7282588739        0.6761789332
 C         -0.5253440134       -2.2737373093       -1.2707083916
 C         -0.1143978509       -3.6748639334       -1.6072842030
 C         -1.4863544325       -3.1896117512       -1.9648919510
 H         -1.7158669950       -3.0058788792       -3.0039176603
 H         -2.3247101273       -3.5556962945       -1.3900467984
 H         -0.0214098704       -4.3774196583       -0.7928938755
 H          0.6035552351       -3.8223123718       -2.4002290910
 H         -0.0974641737       -1.4655443285       -1.8547394541
 O         -3.4536905379       -2.1193850870        1.1717785576
