  62
        -98.94892066
 C         -0.9061350876       -1.7622192650        0.2065920607
 C         -0.0473814687       -2.5791605366       -0.5636871070
 C          1.3584861845       -2.6119653024       -0.1411019708
 C          1.7444610837       -1.8804276421        0.9201139032
 C          3.1440856505       -1.8296238109        1.4601270443
 C          3.9517121341       -0.6774464107        0.8501570831
 C          3.8705067152       -0.5965725361       -0.6743297140
 H          2.8544779743       -0.3239682614       -0.9731860744
 H          4.5191289232        0.2243634457       -0.9910462843
 C          4.2925930917       -1.8807579825       -1.4021797936
 H          4.8927258789       -2.5037295670       -0.7372610766
 H          4.9244573329       -1.6068203387       -2.2498937813
 C          3.1340153558       -2.7068396788       -1.9641360169
 H          2.4657268218       -2.0531387805       -2.5317070040
 H          3.5468295543       -3.4400607424       -2.6627457342
 C          2.2982993551       -3.4760930039       -0.9328586089
 H          1.6670698013       -4.1847608015       -1.4773535067
 H          2.9583235131       -4.0420934218       -0.2718974571
 H          4.9947678399       -0.7908164848        1.1525743319
 H          3.5735064565        0.2604372960        1.2597496745
 H          3.0860375939       -1.6853590612        2.5404490631
 H          3.6356054551       -2.7793242539        1.2565725179
 O          0.8957316717       -1.0876809844        1.6228698223
 C         -0.4452843622       -0.9972102552        1.2784159315
 O         -1.1084106879       -0.2232888734        1.9928525526
 H         -0.8161501409        0.2485698393       -1.2221683548
 C         -1.8047329775        0.6208255639       -1.0019572114
 C         -2.7558266768       -0.2313901776       -0.4591483220
 C         -4.0279735692        0.2704419270       -0.2090658116
 C         -4.3240197225        1.5950987418       -0.4803778349
 C         -3.3592383262        2.4517725722       -0.9790424890
 C         -2.0838153193        1.9575435844       -1.2335643589
 N         -1.0696577013        2.7978988649       -1.7194836009
 S          0.5383292082        2.5885995692       -1.3494935344
 O          1.1745960637        3.7760148794       -1.8824311927
 O          1.0255097827        1.3378225788       -1.8789834468
 C          0.7524531355        2.6050413338        0.4257191313
 C         -0.2904936525        2.7170633943        1.3201774275
 C         -0.0054661992        2.7455656305        2.6773446274
 C          1.3053776556        2.6734224774        3.1157705292
 C          2.3451132396        2.5741462215        2.2038890586
 C          2.0664517700        2.5376147684        0.8483341432
 H          2.8408104697        2.4570280860        0.1011620667
 H          3.3673711873        2.5235552505        2.5450887639
 H          1.5190630268        2.6912493963        4.1729120934
 H         -0.8167349235        2.8109785280        3.3838020745
 H         -1.3112783791        2.7561906610        0.9781270839
 H         -1.3081064137        3.7764816598       -1.7820794352
 H         -3.5833028398        3.4909595168       -1.1655892651
 H         -5.3162471926        1.9715812664       -0.2839475641
 H         -4.7860070427       -0.3753789922        0.2029726918
 C         -2.3701203150       -1.6627505683       -0.1761047747
 H         -2.4705874193       -2.2390341647       -1.1088244169
 C         -3.2384798172       -2.3044808858        0.8885988236
 C         -4.4932657712       -3.0341263871        0.5145924738
 C         -3.2899506600       -3.7996422258        0.9734847512
 H         -3.3088826078       -4.2615621095        1.9490843960
 H         -2.7242969344       -4.3545295683        0.2390366575
 H         -4.7519150155       -3.0837956447       -0.5324798232
 H         -5.3425228956       -2.9733443225        1.1785263228
 H         -3.2247215340       -1.7505091924        1.8205454843
 O         -0.4417859621       -3.2592772893       -1.5512771979
