  62
        -98.94047066
 C         -0.6606805578       -1.4348355908        0.0159412558
 C         -1.3664549908       -0.5958502494        0.9073008302
 C         -2.3820240276        0.2900451323        0.3110434693
 C         -2.5401109506        0.3018661936       -1.0237301165
 C         -3.4859950970        1.1242180782       -1.8642912107
 C         -4.8977863000        1.3655330261       -1.3198944191
 C         -5.5099065331        0.1687231863       -0.5778087542
 H         -6.4910909113       -0.0513198478       -1.0025486955
 H         -4.8874022473       -0.7162824595       -0.7204305030
 C         -5.6916925334        0.4238961219        0.9198058548
 H         -6.4313130999       -0.2798632499        1.3092915424
 H         -6.0930760964        1.4298753293        1.0597265077
 C         -4.4283402607        0.2666373705        1.7648317586
 H         -4.6684409730        0.5664222183        2.7879161077
 H         -4.1364005798       -0.7865568838        1.8014059032
 C         -3.2093596596        1.0746459955        1.2884812547
 H         -3.5108952412        2.0370678438        0.8847673702
 H         -2.5622958270        1.2443160872        2.1531721033
 H         -5.5243036604        1.6229027874       -2.1757681887
 H         -4.8960691593        2.2319550167       -0.6609023451
 H         -3.0108939256        2.0868568712       -2.0695750731
 H         -3.5512761272        0.5917982069       -2.8165167269
 O         -1.7836281433       -0.4751696380       -1.8513324718
 C         -0.8479327057       -1.3706031527       -1.3635649205
 O         -0.2629571601       -2.0326812809       -2.2412035353
 H          1.5197926165       -0.0398323891        0.3807640842
 C          2.1523172135       -0.8051270253       -0.0463745181
 C          1.7179190431       -2.1247835368       -0.0348608889
 C          2.5464090569       -3.1018519612       -0.5702307066
 C          3.7693980799       -2.7558811459       -1.1186583637
 C          4.1939537608       -1.4405286367       -1.1353954524
 C          3.3752774209       -0.4556368313       -0.5930199999
 N          3.7539389198        0.8934654556       -0.6222640599
 S          3.2843534085        1.9374448353        0.5900194260
 O          4.1559178919        3.0833605156        0.4317892623
 O          3.3184109398        1.3029310554        1.8874871792
 C          1.6245490515        2.4353466698        0.1824729462
 C          1.2467274298        2.5442378797       -1.1406820366
 C         -0.0234231325        3.0125688084       -1.4359770449
 C         -0.8827111240        3.3758589087       -0.4108837183
 C         -0.4895825649        3.2580728755        0.9124096147
 C          0.7748525670        2.7805189581        1.2144714614
 H          1.1154528850        2.6596168728        2.2306503500
 H         -1.1606148290        3.5353910549        1.7090627484
 H         -1.8646262536        3.7574337777       -0.6418432287
 H         -0.3344119972        3.0952353848       -2.4653484569
 H          1.9387181219        2.2555573239       -1.9145845288
 H          4.6863488055        1.0811660448       -0.9590515194
 H          5.1456846706       -1.1725388752       -1.5681375958
 H          4.4019993515       -3.5230203313       -1.5389098572
 H          2.2328655821       -4.1326975189       -0.5672346807
 C          0.3639957634       -2.4101364548        0.5650476514
 H          0.4201258704       -2.2033084735        1.6446838575
 C         -0.1035222310       -3.8364383622        0.3633984485
 C          0.3320996458       -4.9162226658        1.3070864805
 C         -1.0821717143       -4.4221284815        1.3350172291
 H         -1.8628660237       -5.0654685574        0.9575962204
 H         -1.3911800616       -3.7997033023        2.1622642608
 H          0.9828420401       -4.6351649322        2.1214300159
 H          0.5208010773       -5.9027801736        0.9113690014
 H         -0.2266523165       -4.0884630870       -0.6840950025
 O         -1.1590489756       -0.5851923160        2.1511540284
