  62
        -98.93544080
 C         -2.2542701658       -0.7659932040       -0.2593035215
 C         -3.4966129765       -0.9296611095        0.3985306737
 C         -4.3426623173        0.2688292803        0.5307127277
 C         -3.8962292317        1.4455996374        0.0531322317
 C         -4.5085495156        2.8307975658        0.0805957218
 C         -5.9753378747        3.0298740272        0.4534073964
 C         -6.9736362761        2.4809032163       -0.5657239805
 H         -7.9777902234        2.5794431240       -0.1478454251
 H         -6.9255497983        3.0995336959       -1.4654428935
 C         -6.7521850070        1.0318129941       -0.9918199429
 H         -5.7853613490        0.9399057764       -1.4907863551
 H         -7.5198929238        0.7790116172       -1.7281134071
 C         -6.8301820068        0.0008778789        0.1321723516
 H         -7.7801048531        0.1033830329        0.6602665012
 H         -6.8085092051       -0.9905784270       -0.3281226964
 C         -5.6889593327        0.0574892278        1.1619761679
 H         -5.8792746187        0.8105665915        1.9228395332
 H         -5.6408767218       -0.9120792930        1.6662327902
 H         -6.1713293453        2.6209326148        1.4401650942
 H         -6.1345177324        4.1094550545        0.5219874901
 H         -4.3314075599        3.2543295822       -0.9132390249
 H         -3.8916909747        3.4117182834        0.7753871432
 O         -2.6748757876        1.5606933207       -0.5468816331
 C         -1.8307700459        0.4767689863       -0.7257782382
 O         -0.7659357323        0.7549625008       -1.3104040123
 O         -3.8857277811       -2.0349410675        0.8619106473
 C         -1.3536549568       -1.9803474395       -0.4127491052
 C         -0.1401533772       -1.7794495571        0.4604943599
 C         -0.2569259014       -1.9846766923        1.8327373697
 C          0.8139105772       -1.7509117327        2.6738996809
 C          2.0232572940       -1.3054119601        2.1679270347
 C          2.1459208531       -1.0858164750        0.8029606434
 C          1.0708190187       -1.3327085484       -0.0427046402
 H          1.1740945871       -1.1443829182       -1.0997065960
 N          3.3733697555       -0.6458822030        0.2629837173
 S          4.1328312164        0.6805054736        0.9818280436
 O          4.6189754235        0.2850798544        2.2800082482
 O          3.2688542812        1.8413883188        0.9580111973
 C          5.5059663494        0.8985146969       -0.1322750400
 C          6.6364469341        0.1256572424        0.0523620776
 C          7.6953467120        0.2665834697       -0.8301834592
 C          7.6060339509        1.1719001162       -1.8771748433
 C          6.4650999496        1.9412699307       -2.0490558864
 C          5.4016205343        1.8041772466       -1.1705138018
 H          4.4983682441        2.3868093921       -1.2617713574
 H          6.3990430904        2.6461022550       -2.8622996387
 H          8.4313932570        1.2809747978       -2.5628906098
 H          8.5848668520       -0.3282054669       -0.6993172843
 H          6.6623797890       -0.5580381957        0.8845064936
 H          3.2831792173       -0.4661080690       -0.7291772547
 H          2.8608187668       -1.1067558153        2.8159538657
 H          0.7097180049       -1.9151184698        3.7361026924
 H         -1.2055179969       -2.3173802704        2.2312250528
 H         -1.9299925714       -2.8217906263       -0.0049545153
 C         -1.0309784913       -2.2675576713       -1.8636783942
 C         -0.4550542652       -3.5999862417       -2.2365790608
 C         -1.8643995936       -3.2601471466       -2.6151223500
 H         -2.0875156904       -3.0629566747       -3.6529648450
 H         -2.6691744255       -3.7426677549       -2.0802554001
 H          0.2908309872       -3.6410193796       -3.0154687887
 H         -0.3011452164       -4.3131195380       -1.4410175444
 H         -0.6922666670       -1.3946277597       -2.4086890572
