  62
        -98.93819643
 C         -2.5737152860       -1.0593018322        0.2465206203
 C         -2.5334023925       -0.1126768427       -0.8043453348
 C         -3.0348004371        1.2374405170       -0.4910999956
 C         -3.5288681640        1.5005512051        0.7297979853
 C         -4.1287890111        2.7832092756        1.2488754343
 C         -3.4145091020        4.0954387388        0.8974821369
 C         -1.8857385825        3.9963585013        0.7882883197
 H         -1.4342358389        4.7849893392        1.3932273248
 H         -1.5359442720        3.0420097851        1.1869141538
 C         -1.3740086372        4.1566963231       -0.6451932603
 H         -1.9145730212        4.9762527378       -1.1247533096
 H         -0.3167069021        4.4314646079       -0.6111422858
 C         -1.4772344349        2.9064461879       -1.5172302301
 H         -0.7637179178        2.1573451835       -1.1581171263
 H         -1.1673626676        3.1767200374       -2.5303954297
 C         -2.8716551637        2.2588704075       -1.5792293264
 H         -3.6552208906        3.0119917989       -1.5476075693
 H         -2.9499941013        1.7137292363       -2.5237584926
 H         -3.6762455787        4.8138700750        1.6760506629
 H         -3.8105310386        4.4882720522       -0.0379089896
 H         -4.1573428127        2.6623743424        2.3343580918
 H         -5.1650379953        2.8375347966        0.9027306026
 O         -3.5856011595        0.5488742839        1.7033972795
 C         -3.0881229830       -0.7240773924        1.5024977487
 O         -3.1706744438       -1.4664602473        2.5014024575
 O         -2.1127874447       -0.3555002529       -1.9684206897
 C         -2.0058751457       -2.4683710195        0.1313815806
 C         -0.5055169844       -2.3849839732        0.2790424062
 C          0.1338057865       -2.8606580308        1.4180544389
 C          1.4972846248       -2.6900432394        1.5855348097
 C          2.2466727228       -2.0214627326        0.6330283097
 C          1.6140067501       -1.5394507317       -0.5043523253
 C          0.2572754697       -1.7452707851       -0.6879257238
 H         -0.2246663469       -1.3482029973       -1.5689262801
 N          2.3561495775       -0.7804982217       -1.4448198160
 S          2.6580799612        0.7848303147       -0.8862856866
 O          1.6096013854        1.2418694482       -0.0016642161
 O          2.9026401001        1.5864972450       -2.0656039606
 C          4.1792588760        0.5901310758        0.0169433680
 C          4.1998726785        0.7819412312        1.3840128317
 C          5.3938251892        0.6062338694        2.0665313188
 C          6.5383427747        0.2430233940        1.3732282843
 C          6.5008178945        0.0550655645       -0.0006995285
 C          5.3108896356        0.2297936616       -0.6887114012
 H          5.2352921805        0.0991035043       -1.7552619282
 H          7.3930424719       -0.2273785864       -0.5358371914
 H          7.4651321236        0.1054290993        1.9074788056
 H          5.4244869124        0.7511582339        3.1345023559
 H          3.2830275664        1.0576293840        1.8804175058
 H          1.8749182695       -0.7071305196       -2.3322201726
 H          3.3048738631       -1.8644322921        0.7662426593
 H          1.9786180962       -3.0670729891        2.4749550608
 H         -0.4528841970       -3.3433587637        2.1863966339
 H         -2.4013996714       -3.0201896276        0.9942962060
 C         -2.4219071577       -3.1917805676       -1.1329912136
 C         -2.3445788899       -4.6875512314       -1.1691728903
 C         -3.6788369569       -4.0064154985       -1.1276310281
 H         -4.2917172476       -4.0115282658       -2.0164105062
 H         -4.2443216460       -4.0456517913       -0.2078548031
 H         -2.0394702779       -5.1646907748       -2.0877244921
 H         -2.0062990495       -5.1920670867       -0.2768015905
 H         -2.1878339576       -2.6512824689       -2.0401856093
