  62
        -98.94059161
 C         -2.3415468057        0.1603671521       -0.2844741289
 C         -3.5119416033        0.5196531230       -0.9947777515
 C         -4.7263789486       -0.2236640748       -0.6422221511
 C         -4.6665209790       -1.1972946613        0.2847064959
 C         -5.8135113460       -2.0608104528        0.7352448496
 C         -6.6870926982       -1.4190935628        1.8219308670
 C         -7.5872308802       -0.2789650524        1.3440502719
 H         -8.1650890730       -0.6111227704        0.4810733146
 H         -8.2944178549       -0.0706201280        2.1493516039
 C         -6.8394083675        1.0161982158        0.9977713893
 H         -5.8395702661        0.9889115239        1.4373223952
 H         -7.3602288641        1.8674939715        1.4419280706
 C         -6.7129789651        1.2947468156       -0.5000555037
 H         -6.1358965798        2.2139183340       -0.6295327860
 H         -7.7047350647        1.4565653030       -0.9280753488
 C         -6.0146590892        0.1818834233       -1.2925708931
 H         -6.6761073174       -0.6777293300       -1.3973078755
 H         -5.7777593765        0.5662958486       -2.2876715975
 H         -7.3222301529       -2.2057245514        2.2357017153
 H         -6.0380327168       -1.0597846640        2.6238266315
 H         -6.4328069991       -2.3250819866       -0.1222626428
 H         -5.3730845470       -2.9736208713        1.1418829595
 O         -3.5141965705       -1.5312136787        0.9253152929
 C         -2.3302203548       -0.8525583772        0.6741768602
 O         -1.3617667959       -1.2441599010        1.3528329915
 O         -3.5378019349        1.4116431359       -1.8849502828
 C         -1.0513067125        0.9042703266       -0.5738162736
 C          0.0254177473       -0.0573443378       -1.0110338362
 C         -0.2524898292       -0.9525362566       -2.0418532142
 C          0.7053213216       -1.8454279558       -2.4798464296
 C          1.9671208422       -1.8557782397       -1.9111469681
 C          2.2551766760       -0.9671276317       -0.8829396176
 C          1.2873412189       -0.0750932345       -0.4402918958
 H          1.5407387061        0.6016305239        0.3582351434
 N          3.5173335907       -0.9706376608       -0.2687707337
 S          4.1589735442        0.4885353232        0.2834305534
 O          3.6315737368        0.7710776258        1.5945825943
 O          3.9790155388        1.5191797935       -0.7141403728
 C          5.8829542762        0.0489977328        0.4115009021
 C          6.3073723905       -0.6558748148        1.5222279309
 C          7.6399504468       -1.0254061441        1.6118477405
 C          8.5211000150       -0.6864900732        0.5955243936
 C          8.0811410083        0.0228475464       -0.5118411523
 C          6.7492457257        0.3942933012       -0.6085882181
 H          6.3636589696        0.9531445341       -1.4460680923
 H          8.7691769186        0.2880435034       -1.2982872641
 H          9.5578595713       -0.9746150079        0.6687552519
 H          7.9862404024       -1.5743704957        2.4726311024
 H          5.5886128972       -0.8886448176        2.2906983093
 H          4.2016374368       -1.5169256764       -0.7735211244
 H          2.7176614252       -2.5515351357       -2.2542810750
 H          0.4720363104       -2.5351045239       -3.2772194976
 H         -1.2359960226       -0.9385389446       -2.4922025484
 H         -1.2792850439        1.5671650208       -1.4226947229
 C         -0.6563216997        1.7577702866        0.6126115201
 C          0.1791810747        2.9856054660        0.4128771244
 C         -1.2692527008        3.1151514310        0.7745207818
 H         -1.5256649192        3.4504841842        1.7682524776
 H         -1.9595321183        3.4410818664        0.0101060050
 H          0.9254919388        3.2254387829        1.1559255460
 H          0.4787381064        3.2269399358       -0.5960945123
 H         -0.4919128054        1.1723304162        1.5113086230
