  62
        -98.94382163
 C         -1.9158337795       -1.2689473295        0.1462238400
 C         -2.4307778896       -0.4214500190        1.1596308196
 C         -3.7908184395        0.0835556110        0.9507772292
 C         -4.4647416494       -0.2593682495       -0.1622403107
 C         -5.8696446594        0.1523933005       -0.5091661510
 C         -5.9693236093        1.5309085902       -1.1763583216
 C         -5.7288681093        2.7220242106       -0.2479662421
 H         -6.0400979292        3.6177055103       -0.7893062025
 H         -6.3701006694        2.6332446310        0.6295911579
 C         -4.2690202693        2.8962142707        0.1939060180
 H         -3.6159601893        2.3245540904       -0.4700970017
 H         -3.9818045992        3.9457310406        0.0960425875
 C         -3.9895119795        2.4841033013        1.6394351182
 H         -2.9211446995        2.6141987013        1.8308543182
 H         -4.5351621295        3.1419641916        2.3196339178
 C         -4.3567915796        1.0304816515        1.9656565688
 H         -5.4393347696        0.9213205615        2.0263231887
 H         -3.9239122097        0.7773441219        2.9365752789
 H         -5.2615117792        1.5686045098       -2.0077617215
 H         -6.9754702892        1.6197498100       -1.5924858817
 H         -6.4890840195        0.1350898009        0.3879671990
 H         -6.2486982994       -0.5958758798       -1.2085121207
 O         -3.9305144094       -1.0591300599       -1.1206188103
 C         -2.6390953994       -1.5593918699       -1.0112584699
 O         -2.2794619794       -2.2388313204       -1.9900960696
 O         -1.7828494996       -0.1067446486        2.1945147295
 C         -0.5017570296       -1.7973240095        0.3240399603
 C          0.4236005906       -0.9874257499       -0.5499060299
 C          0.8289755506       -1.3977891205       -1.8135245997
 C          1.6658713308       -0.5981260308       -2.5729637300
 C          2.1249972108        0.6127832094       -2.0863762305
 C          1.7246688507        1.0300742799       -0.8236845007
 C          0.8785706606        0.2337348803       -0.0679616304
 H          0.5572416005        0.5633911607        0.9117606294
 N          2.2379154707        2.2378547201       -0.3007444512
 S          3.9091586507        2.2434776501       -0.1233719110
 O          4.1897248806        3.1944132406        0.9287666786
 O          4.5198901708        2.5127605295       -1.4002445211
 C          4.2861657706        0.5793529103        0.3977336597
 C          3.9553490004        0.2108808309        1.6866514499
 C          4.1352424103       -1.1067152689        2.0746561705
 C          4.6302684803       -2.0310559194        1.1673984109
 C          4.9622423405       -1.6442194499       -0.1215474692
 C          4.7875359906       -0.3270022401       -0.5142134798
 H          5.0307277507        0.0143605095       -1.5067172799
 H          5.3476654605       -2.3655253903       -0.8237080789
 H          4.7581475303       -3.0591371592        1.4681318314
 H          3.8799487902       -1.4093146585        3.0777878706
 H          3.5725579804        0.9568701212        2.3650510995
 H          1.8030057806        2.5013430705        0.5726241487
 H          2.7922825109        1.2385302591       -2.6570843407
 H          1.9683837008       -0.9249541113       -3.5561135598
 H          0.4705570206       -2.3343931106       -2.2072334693
 H         -0.2464824596       -1.5754766090        1.3693890703
 C         -0.3791627396       -3.2896657396        0.1045702710
 C          0.8901284603       -3.9704643594        0.5202482614
 C         -0.3735519398       -4.2052781990        1.2902157614
 H         -0.8626611198       -5.1636959691        1.2007511818
 H         -0.4674318098       -3.7587050686        2.2693094212
 H          1.2728333903       -4.7689159797       -0.0961386982
 H          1.6547054603       -3.3556550593        0.9714338712
 H         -0.8761454196       -3.6398534099       -0.7907781789
