  62
        -98.94762208
 C          1.8326932986        1.3402121591       -0.1042206396
 C          2.9407075001        0.6207377615        0.4079461119
 C          3.2534098479       -0.6472312153       -0.2576598054
 C          2.4986635046       -1.0610766284       -1.2912738406
 C          2.6698789668       -2.3447307535       -2.0559311409
 C          1.9840985089       -3.5410256256       -1.3812750277
 C          2.6988261917       -4.0803470429       -0.1414845317
 H          2.2545486614       -5.0513153954        0.0867981463
 H          3.7525222182       -4.2474228962       -0.3700152847
 C          2.5717997211       -3.1820985513        1.0970490449
 H          1.7351714929       -2.4916126584        0.9590733188
 H          2.3276301434       -3.7967931417        1.9673933551
 C          3.8349094818       -2.3921576848        1.4432285121
 H          3.6142619505       -1.7597231922        2.3072408815
 H          4.6313511796       -3.0842962662        1.7273581116
 C          4.3527071924       -1.4893777570        0.3159069174
 H          4.8177345955       -2.0914088822       -0.4644582788
 H          5.1045449425       -0.8162554011        0.7360273490
 H          0.9658280657       -3.2503412318       -1.1086027967
 H          1.9199546003       -4.3443610137       -2.1192568043
 H          2.2113069489       -2.1903026808       -3.0350142313
 H          3.7301114759       -2.5578916188       -2.1955582564
 O          1.4645647521       -0.3296504107       -1.7758752129
 C          1.0670712110        0.8473480971       -1.1616403108
 O          0.0441460549        1.3531886376       -1.6630321842
 O          3.6265559291        1.0150415757        1.3903763627
 C          1.3819822377        2.5795718728        0.6504420257
 C         -0.0924369292        2.4557373580        0.9476293434
 C         -1.0296144766        3.4501556200        0.7022260648
 C         -2.3714312581        3.2306965892        0.9671709714
 C         -2.8101712754        2.0109530723        1.4480538643
 C         -1.8781903421        1.0102103716        1.6981372223
 C         -0.5331249455        1.2516237761        1.4848194294
 H          0.1769855711        0.4629182339        1.6896604326
 N         -2.2610567844       -0.2760388743        2.1396835640
 S         -2.0382177206       -1.5154600508        1.0270048749
 O         -2.4968053651       -2.7140323324        1.6975190169
 O         -0.6749086786       -1.5260059947        0.5668542314
 C         -3.1728395400       -1.1107359510       -0.2890050340
 C         -2.8220433329       -0.1551133453       -1.2212092646
 C         -3.7561331222        0.2104981154       -2.1797119650
 C         -5.0117927930       -0.3762107546       -2.1886652104
 C         -5.3465684369       -1.3355630513       -1.2443281492
 C         -4.4219346654       -1.7029925077       -0.2809284945
 H         -4.6345515608       -2.4444895520        0.4724336922
 H         -6.3225768503       -1.7934721805       -1.2538415048
 H         -5.7322141305       -0.0843143650       -2.9365313715
 H         -3.4879915792        0.9570173152       -2.9100798085
 H         -1.8374337925        0.2872245254       -1.2030721535
 H         -3.2115598853       -0.3198118844        2.4829750316
 H         -3.8602904245        1.8282217121        1.6207329728
 H         -3.0880936878        4.0134205920        0.7707517474
 H         -0.7151626430        4.3914305492        0.2823100266
 H          1.9261891834        2.5231605012        1.6091153040
 C          1.7718067225        3.9034354482        0.0114381207
 C          2.9074085502        3.9859159221       -0.9632853954
 C          1.5016896437        4.2058163014       -1.4310568914
 H          1.2036158725        5.2096697634       -1.6963681091
 H          1.0284693019        3.4359524984       -2.0191600267
 H          3.5728116363        4.8342822624       -0.9045569725
 H          3.3986029511        3.0631767887       -1.2371935137
 H          1.6814906478        4.7320737287        0.7072150710
