  62
        -98.93082575
 C         -1.7367190139       -0.9800952492        0.1947190517
 C         -3.0527922617       -1.0850117190        0.7053006286
 C         -3.9068738430        0.1099579906        0.6005850657
 C         -3.4088763446        1.2274371874        0.0390575749
 C         -4.0197033915        2.5985700133       -0.1621625192
 C         -5.5248230330        2.8114109646       -0.0229433161
 C         -6.3704074109        2.1231647870       -1.0937457535
 H         -7.4233500319        2.2645985726       -0.8403423051
 H         -6.1895744246        2.6181272281       -2.0513023083
 C         -6.1028352259        0.6327528939       -1.2887607813
 H         -5.0810942100        0.4865219906       -1.6455715194
 H         -6.7714848587        0.2734294777       -2.0758671261
 C         -6.3276572502       -0.2394276100       -0.0549498775
 H         -6.2615213247       -1.2830981469       -0.3742526446
 H         -7.3338245666       -0.0729448589        0.3345743119
 C         -5.3183641453       -0.0417037869        1.0896429374
 H         -5.5976523567        0.7966517805        1.7232577108
 H         -5.3326619917       -0.9417628272        1.7111282087
 H         -5.8570314594        2.5200850213        0.9690716682
 H         -5.6957118787        3.8878808732       -0.1103346440
 H         -3.5108824499        3.2578750754        0.5496701745
 H         -3.7038303160        2.9202068804       -1.1596280096
 O         -2.1284856126        1.2852209494       -0.4281379229
 C         -1.2686680378        0.1971726711       -0.3832474274
 O         -0.1490239704        0.4226203464       -0.8739739491
 H          1.7769650011       -1.7112293397       -0.7582180374
 C          1.6774453661       -1.6432976848        0.3085791693
 C          0.4627722687       -1.8447904648        0.9457410654
 C          0.4169629579       -1.6762973790        2.3315171952
 C          1.5408809689       -1.3285095818        3.0528084015
 C          2.7532542869       -1.1472655306        2.4104240128
 C          2.8164687521       -1.3082434336        1.0329919258
 N          4.0475638883       -1.1855666758        0.3624089253
 S          4.2483135959       -0.1713505005       -0.9532741003
 O          3.3309901875       -0.5290285698       -2.0018565638
 O          5.6563832975       -0.2797989794       -1.2724664845
 C          3.9231234800        1.4624722920       -0.3158040895
 C          4.9988343695        2.2375906478        0.0743768597
 C          4.7628675789        3.4837035470        0.6307675931
 C          3.4593082700        3.9277715070        0.7955846961
 C          2.3925201460        3.1349226180        0.4023854162
 C          2.6193785517        1.8866931974       -0.1589290366
 H          1.8028896676        1.2571295180       -0.4769683653
 H          1.3762453851        3.4747554449        0.5266972369
 H          3.2725425531        4.8969642503        1.2308920915
 H          5.5918437035        4.1025034188        0.9345276518
 H          5.9942167103        1.8526184678       -0.0784393008
 H          4.8355764496       -1.0712345496        0.9846381587
 H          3.6405247752       -0.8890274609        2.9685222725
 H          1.4756277064       -1.2021317569        4.1228250142
 H         -0.5270524814       -1.8211021039        2.8393046175
 C         -0.8414195953       -2.2093264397        0.2826197802
 H         -1.3702889913       -2.8686299580        0.9909514442
 C         -0.8669557141       -2.9632786909       -1.0397350152
 C         -0.1491472928       -2.5811636188       -2.2974181966
 C          0.2385611325       -3.8299949351       -1.5608403006
 H         -0.0264732249       -4.7807627422       -1.9996653995
 H          1.1759408324       -3.8417594018       -1.0279073210
 H          0.5083068313       -1.7263777746       -2.2916359710
 H         -0.6887518579       -2.6879130458       -3.2285982235
 H         -1.8725064363       -3.3493212016       -1.1974744254
 O         -3.4966955503       -2.1370612305        1.2398705998
