  62
        -98.94357061
 C         -1.5667645089       -1.4587971710        0.0307252395
 C         -2.1279029593       -0.5442669415        0.9544730397
 C         -3.1201757300        0.3879502779        0.4085576000
 C         -3.4433971403        0.3302442878       -0.8960913999
 C         -4.4321070211        1.2195227072       -1.6002851896
 C         -3.8463655221        2.5672769877       -2.0450052795
 C         -3.5742625225        3.5664326577       -0.9191477694
 H         -3.3765081333        4.5313357379       -1.3904061293
 H         -4.4726407724        3.6796828970       -0.3116524892
 C         -2.3840827621        3.2043298384       -0.0189090197
 H         -1.7633619526        4.0897873088        0.1350462102
 H         -1.7593177517        2.4616337789       -0.5215525400
 C         -2.7723094814        2.6726729180        1.3609025503
 H         -1.8575523111        2.4005310985        1.8920559700
 H         -3.2767860718        3.4581180376        1.9275249005
 C         -3.6770895205        1.4347021974        1.3253412103
 H         -3.7156415400        1.0094438072        2.3310385003
 H         -4.6867810608        1.7104461267        1.0227225006
 H         -2.9226527321        2.3809829784       -2.5985559197
 H         -4.5603716925        3.0198110373       -2.7371128393
 H         -5.2964069910        1.3905896166       -0.9581161693
 H         -4.7615214409        0.6776296171       -2.4894547696
 O         -2.8952988799       -0.5770333217       -1.7487435901
 C         -1.9316212691       -1.4797265311       -1.3154682705
 O         -1.4882533588       -2.2238849607       -2.2104912007
 O         -1.8091700390       -0.5061570815        2.1719161096
 C         -0.5123291881       -2.4263123504        0.5248333391
 C          0.8237020016       -2.2034320694       -0.1428783512
 C          1.7837883523       -3.2077983587       -0.2094230915
 C          3.0249203020       -2.9670905378       -0.7728834318
 C          3.3383502310       -1.7228462375       -1.2903211217
 C          2.3855537103       -0.7165787182       -1.2360443313
 C          1.1495382906       -0.9544083091       -0.6536990011
 H          0.4220867001       -0.1530661596       -0.6041281908
 N          2.7104518194        0.5659131921       -1.7454755212
 S          3.6458981090        1.4892342026       -0.7040815413
 O          3.7763602679        2.7873876928       -1.3247306912
 O          4.8675569895        0.7751797634       -0.4389268417
 C          2.6628491492        1.6137650618        0.7780870989
 C          2.6665217901        0.5611101117        1.6720186188
 C          1.8193716103        0.6127714809        2.7674051090
 C          0.9911054196        1.7088151603        2.9511955193
 C          1.0058544987        2.7611488405        2.0484808294
 C          1.8404228685        2.7100760212        0.9438175392
 H          1.8777132178        3.5030594313        0.2137420393
 H          0.3656201682        3.6161991800        2.1976071097
 H          0.3252391698        1.7363254398        3.7992834995
 H          1.7986186911       -0.2052870692        3.4691231089
 H          3.3291863207       -0.2717543379        1.4998821785
 H          1.8943285389        1.1028762416       -2.0049027110
 H          4.3024480108       -1.5110984968       -1.7224736819
 H          3.7568770625       -3.7592047373       -0.8122332120
 H          1.5567998130       -4.1848038289        0.1854993984
 H         -0.3909063180       -2.1959037804        1.5949986791
 C         -0.9966486471       -3.8576948807        0.3907442890
 C         -0.6724242062       -4.8781323606        1.4397150988
 C         -2.0674552166       -4.3457690515        1.3189523292
 H         -2.8384899763       -4.9901956420        0.9242982893
 H         -2.4190362169       -3.6567383219        2.0731311293
 H         -0.4851941756       -5.8948587404        1.1283159186
 H         -0.0859145362       -4.5591683403        2.2881963587
 H         -1.0463263772       -4.1826751106       -0.6423928910
