  62
        -98.93508397
 C         -2.0575146328       -1.5334176723        0.0733581349
 C         -2.3679407798       -0.5597602854       -0.9062318680
 C         -3.7120127611        0.0448774995       -0.8248012544
 C         -4.5542015805       -0.3268960795        0.1529973148
 C         -5.9720473795        0.1243065713        0.4006195332
 C         -6.2819551116        1.6191812094        0.2448998732
 C         -5.1377317873        2.5640136786        0.6398982394
 H         -5.5218845867        3.3176257094        1.3299145738
 H         -4.3582607003        2.0096414783        1.1658357571
 C         -4.5250452937        3.2940759682       -0.5577638057
 H         -5.3311861795        3.6306874389       -1.2133206775
 H         -4.0040670801        4.1844792006       -0.1970940376
 C         -3.5209691335        2.4827534819       -1.3752386686
 H         -3.2431349811        3.0751157071       -2.2505349141
 H         -2.6099040568        2.3296027962       -0.7900620363
 C         -4.0117137922        1.1039097032       -1.8470440361
 H         -3.4429146313        0.8325065811       -2.7404938307
 H         -5.0680177033        1.1287387594       -2.1028783846
 H         -6.5742843657        1.8266760525       -0.7835588556
 H         -7.1549024034        1.8256970258        0.8664450798
 H         -6.6299127611       -0.4473073567       -0.2606854164
 H         -6.1937148678       -0.1901783156        1.4233727747
 O         -4.2085471266       -1.2565815512        1.0879664032
 C         -2.9728252198       -1.8757764010        1.0723670565
 O         -2.8091617475       -2.7095904568        1.9855600177
 O         -1.5822599098       -0.1978478394       -1.8201122167
 C         -0.7353758943       -2.2839242342        0.1194654325
 C          0.3316959256       -1.4844493685        0.8216351562
 C          1.0694450615       -2.0367662402        1.8619429486
 C          2.0547694417       -1.2998493514        2.4965834697
 C          2.3283465511       -0.0024143434        2.1032085456
 C          1.5998550511        0.5567656851        1.0606246565
 C          0.6108741677       -0.1825149888        0.4278070807
 H          0.0505562104        0.2547970045       -0.3853747678
 N          1.8805050131        1.8692305400        0.6403893405
 S          3.4880580567        2.2633796470        0.3852805894
 O          4.1172626083        2.5556377984        1.6493419107
 O          3.4707064744        3.3426310862       -0.5761459226
 C          4.2112843846        0.7960038420       -0.3259943324
 C          3.7494726285        0.3788463915       -1.5588507250
 C          4.2606181793       -0.7863493609       -2.1069666226
 C          5.2171378825       -1.5127449531       -1.4142531765
 C          5.6745253762       -1.0777344178       -0.1802554457
 C          5.1670192129        0.0871644917        0.3727984030
 H          5.4937051047        0.4606511969        1.3294675220
 H          6.4202050877       -1.6433728586        0.3546594599
 H          5.6064875632       -2.4232827574       -1.8411680423
 H          3.9042515089       -1.1270131098       -3.0657280651
 H          3.0057310755        0.9674630427       -2.0728668034
 H          1.3067873363        2.1742536532       -0.1324404161
 H          3.0863620068        0.5890805396        2.5904325306
 H          2.6153244625       -1.7394516628        3.3071813929
 H          0.8556642275       -3.0460621857        2.1818848949
 H         -0.9388646092       -3.1736684633        0.7354557451
 C         -0.2978374902       -2.7809566152       -1.2536333428
 C          0.8742837505       -2.2368447558       -2.0076465051
 C          0.9523510735       -3.5990012287       -1.3914849678
 H          0.9350495562       -4.4654521066       -2.0348100447
 H          1.5684360493       -3.7107406008       -0.5120250045
 H          0.7783035327       -2.1520402033       -3.0793225671
 H          1.4504307746       -1.4440170859       -1.5578891286
 H         -1.1486370713       -3.0908856075       -1.8526254959
