  62
        -98.94169330
 C         -2.3199147408       -1.1196419394        0.2970915765
 C         -1.8963496141       -0.2126193948       -0.7057159261
 C         -2.4897638412        1.1332217054       -0.6418040211
 C         -3.3456969351        1.4362164857        0.3501088446
 C         -3.9696803610        2.7838900031        0.5660539774
 C         -3.1068611662        3.6511307285        1.4938016988
 C         -1.6303357886        3.6976861396        1.0992707054
 H         -1.1265867630        4.3619482920        1.8049452436
 H         -1.1947795421        2.7037227901        1.2274093861
 C         -1.3730715924        4.1809851892       -0.3347115395
 H         -0.5523606727        4.9008370715       -0.3185471165
 H         -2.2529929682        4.7036356725       -0.7113657066
 C         -0.9800107235        3.0748362528       -1.3154466460
 H         -0.1573524491        2.4881179065       -0.8991376867
 H         -0.6152995967        3.5471051913       -2.2307846334
 C         -2.1000194647        2.1079179277       -1.7172730735
 H         -2.9707389086        2.6705855395       -2.0600361462
 H         -1.7294924259        1.5028891300       -2.5497215850
 H         -3.1788966659        3.2508595616        2.5079788067
 H         -3.5159026623        4.6630748947        1.4994933669
 H         -4.9493816545        2.6403102649        1.0250441600
 H         -4.0986863180        3.2777728258       -0.3949801962
 O         -3.6987224221        0.5507920812        1.3176393078
 C         -3.1893564767       -0.7376752475        1.3216652774
 O         -3.5715918465       -1.4352797536        2.2829678136
 O         -1.0691842948       -0.4959174680       -1.6088721331
 C         -1.7985187994       -2.5450291565        0.3504879237
 C         -0.3061285842       -2.5686563942        0.1214749034
 C          0.3137920757       -3.3459692541       -0.8473705937
 C          1.6921467125       -3.3380981894       -0.9738644774
 C          2.4795536162       -2.5592169686       -0.1470265698
 C          1.8692423962       -1.7602654574        0.8125090185
 C          0.4887761239       -1.7795210718        0.9447120771
 H          0.0130134300       -1.1654922380        1.7005727452
 N          2.6459827830       -0.9676357038        1.6733138148
 S          3.9771635864       -0.1103811664        1.1429937858
 O          4.9967089499       -1.0325182209        0.7094305916
 O          4.3208238425        0.7463014011        2.2551891790
 C          3.4361410359        0.8853858202       -0.2332709752
 C          3.4933173263        0.3770241064       -1.5151853124
 C          3.0559816262        1.1654537265       -2.5676138775
 C          2.5800391333        2.4436293768       -2.3235196450
 C          2.5342159139        2.9424143624       -1.0304862810
 C          2.9589417122        2.1550113439        0.0268177814
 H          2.9465952986        2.5077607715        1.0457692841
 H          2.1683956072        3.9392808623       -0.8435558872
 H          2.2435707520        3.0556703547       -3.1452940680
 H          3.0886520641        0.7788975524       -3.5734129279
 H          3.8848235446       -0.6137922391       -1.6725281297
 H          2.1064743802       -0.4179585376        2.3247637854
 H          3.5545928786       -2.5617632705       -0.2236748503
 H          2.1616284914       -3.9516294025       -1.7279444617
 H         -0.2803003858       -3.9472522247       -1.5151123922
 H         -1.9772157343       -2.8736161511        1.3884148634
 C         -2.5596437054       -3.5143855079       -0.5428863624
 C         -3.9841785587       -3.2561404327       -0.9313359196
 C         -2.9021056251       -3.1890490767       -1.9646049664
 H         -2.8477015071       -3.9792661151       -2.6991382817
 H         -2.6053979777       -2.2224257344       -2.3389585861
 H         -4.6675887123       -4.0918864561       -0.9512766110
 H         -4.4365767953       -2.3327360881       -0.5994290644
 H         -2.3063657669       -4.5475783050       -0.3255996068
