  62
        -98.94109027
 C          1.8962761265        1.5731675428        0.1108491048
 C          2.6653591045        0.7893993626        1.0118881834
 C          3.5751327420       -0.1921357031        0.4124565320
 C          3.6556723438       -0.2928235700       -0.9263242224
 C          4.5635756018       -1.2150482927       -1.6944146008
 C          4.0172207407       -2.6392040332       -1.8654479516
 C          4.0280151879       -3.4962140254       -0.5989962497
 H          3.8278869951       -4.5245308068       -0.9064829451
 H          5.0249326502       -3.4772503954       -0.1578139443
 C          2.9880041869       -3.0820694146        0.4514124234
 H          2.4694363682       -3.9709403632        0.8178976981
 H          2.2413619387       -2.4357801251       -0.0161992053
 C          3.5656501471       -2.3603390912        1.6686902953
 H          2.7390018334       -2.0799157311        2.3261371360
 H          4.2215073208       -3.0375366517        2.2199087734
 C          4.3521432865       -1.0875901896        1.3296582427
 H          4.5314324459       -0.5372697406        2.2564114545
 H          5.3130334619       -1.3454582014        0.8844853929
 H          2.9991267310       -2.5787757505       -2.2574154147
 H          4.6329865025       -3.1349057189       -2.6195303344
 H          5.5386316476       -1.2550961723       -1.2076532080
 H          4.6883707046       -0.7732033852       -2.6854696547
 O          2.9100160766        0.4794632401       -1.7584134405
 C          2.0035962921        1.4153689039       -1.2712196561
 O          1.3837592315        2.0146341613       -2.1708804020
 O          2.6039709272        0.9184944305        2.2628071062
 C          0.9733375059        2.6079011121        0.7327657886
 C         -0.4366780163        2.0895712254        0.8543343984
 C         -1.0911313805        2.0731355314        2.0803010020
 C         -2.3873224388        1.5969196371        2.1812352045
 C         -3.0555105910        1.1273963440        1.0648537245
 C         -2.4042951322        1.1272627285       -0.1626906107
 C         -1.1043997049        1.6025200471       -0.2614875648
 H         -0.6037670124        1.6052535354       -1.2185814703
 N         -3.0652207093        0.6452701326       -1.3041554841
 S         -3.9688197488       -0.7533612760       -1.1679084895
 O         -3.9610151495       -1.3434361887       -2.4877305342
 O         -5.2687297691       -0.4361863424       -0.6301981832
 C         -3.0848402755       -1.7914676101       -0.0162803845
 C         -3.7165495635       -2.2451359185        1.1236409609
 C         -3.0108705162       -3.0436790704        2.0094492109
 C         -1.6911149184       -3.3713361701        1.7417364598
 C         -1.0712321993       -2.9104211846        0.5902789405
 C         -1.7718843069       -2.1124307084       -0.2989136954
 H         -1.3150410840       -1.7407943434       -1.2030057468
 H         -0.0439728536       -3.1658095661        0.3846356651
 H         -1.1389479983       -3.9892920355        2.4318821077
 H         -3.4904397249       -3.4048964891        2.9047577959
 H         -4.7431461226       -1.9637213843        1.2931147077
 H         -2.4940558087        0.6442707387       -2.1362847520
 H         -4.0702690675        0.7684669208        1.1222609720
 H         -2.8846166878        1.5933952778        3.1388601453
 H         -0.5733144099        2.4280166798        2.9591121512
 H          1.3635055663        2.7399484705        1.7541336018
 C          1.0541433799        3.9633565914        0.0412452031
 C         -0.0774250015        4.5900334703       -0.7118706994
 C          0.3275767783        5.1414765111        0.6201114167
 H          0.8311551174        6.0954050780        0.6585173967
 H         -0.3304618488        4.9538909040        1.4552918620
 H          0.1664467444        5.1474564556       -1.6036360778
 H         -1.0122571274        4.0563325310       -0.7791820468
 H          2.0477653154        4.1539737710       -0.3526040348
