  62
        -98.93708259
 C         -2.4660929987       -1.3539140898        0.2069056181
 C         -2.5532763987       -0.4042558288       -0.8390737198
 C         -3.2789744971        0.8387041342       -0.5286025210
 C         -3.8053520486        1.0119067824        0.6965052323
 C         -4.4628587689        2.2664235267        1.1958883536
 C         -3.3840168147        3.3097140739        1.5525296383
 C         -3.3980379028        4.5600192488        0.6727657230
 H         -4.2315936454        5.1976889654        0.9746983788
 H         -2.4738649335        5.1072199952        0.8710746228
 C         -3.5176804662        4.3162908404       -0.8346509272
 H         -4.5589215913        4.1174986426       -1.0930691588
 H         -3.2462398984        5.2510687464       -1.3297836285
 C         -2.6481025327        3.1889469219       -1.4067835522
 H         -2.2735754533        3.5109295393       -2.3811202059
 H         -1.7731678373        3.0151473139       -0.7779428723
 C         -3.3918453590        1.8578286337       -1.6285590870
 H         -2.9703917863        1.3681737883       -2.5113389221
 H         -4.4466461603        2.0586949396       -1.8348443363
 H         -3.5078256642        3.6212739384        2.5908117418
 H         -2.4048181335        2.8291431643        1.4846931201
 H         -5.0417092144        2.0011042503        2.0806376551
 H         -5.1388346667        2.6571472618        0.4388254006
 O         -3.7187957420        0.0711680285        1.6710606054
 C         -3.0446759647       -1.1171684096        1.4585163714
 O         -3.0345709143       -1.8801255891        2.4445780713
 O         -2.0559035542       -0.5588868393       -1.9884021574
 C         -1.6956800146       -2.6630891074        0.0911849509
 C         -0.2268101663       -2.3753409605        0.2917229379
 C          0.4320469227       -2.7823916734        1.4459180090
 C          1.7577497204       -2.4451321204        1.6570060329
 C          2.4478120701       -1.6837491208        0.7302237522
 C          1.7946499948       -1.2668669743       -0.4217053627
 C          0.4759863881       -1.6289944566       -0.6438432980
 H         -0.0288462030       -1.2834433064       -1.5338426734
 N          2.4767152122       -0.4440200669       -1.3479752715
 S          2.8222763932        1.0985027377       -0.7613181750
 O          1.8599568407        1.5123801018        0.2361835388
 O          2.9436027163        1.9433867464       -1.9294575522
 C          4.4278884798        0.9030422103       -0.0172860795
 C          4.5917496504        1.1169227678        1.3370331607
 C          5.8512329118        0.9538386975        1.8930708290
 C          6.9178371744        0.5816746991        1.0891071943
 C          6.7366420685        0.3722619355       -0.2701354223
 C          5.4806879963        0.5348724672       -0.8323572309
 H          5.2956275615        0.3881712672       -1.8833038431
 H          7.5686146117        0.0834478707       -0.8918886675
 H          7.8961997566        0.4543770464        1.5248580110
 H          5.9936136313        1.1161841985        2.9494203855
 H          3.7311630904        1.3990424878        1.9224882566
 H          1.9694007526       -0.3506015248       -2.2183089756
 H          3.4759469688       -1.4047257268        0.8950388929
 H          2.2557337286       -2.7693126542        2.5580536737
 H         -0.1119929002       -3.3455048658        2.1904676626
 H         -2.0350961790       -3.2821312458        0.9320441262
 C         -1.9599011430       -3.4171356178       -1.1961437591
 C         -1.6298648823       -4.8773064026       -1.2570036948
 C         -3.0606155095       -4.4321484278       -1.2363715175
 H         -3.6444467155       -4.5215459021       -2.1401103510
 H         -3.6308368996       -4.5871185614       -0.3318840641
 H         -1.2284366313       -5.2760073731       -2.1758724741
 H         -1.2297432913       -5.3362039085       -0.3655815678
 H         -1.8004339267       -2.8256592178       -2.0874862361
