  62
        -98.93503727
 C          1.7594834140       -0.1660120559       -0.2278010601
 C          2.8786070098       -0.1810408247       -1.0891959719
 C          4.2074472666       -0.1484324202       -0.4505157029
 C          4.2834354577       -0.0805885805        0.8910511067
 C          5.5115392993       -0.0366394279        1.7650823890
 C          6.6481691198        0.8925110834        1.3112367353
 C          7.8845411951        0.1426431818        0.8121376113
 H          8.0469058710       -0.7257433795        1.4539679582
 H          8.7550350303        0.7937706360        0.9191479126
 C          7.8246629393       -0.3110801869       -0.6454688846
 H          8.6926519663       -0.9487663599       -0.8289968020
 H          7.9178602349        0.5591465427       -1.2989516350
 C          6.5610044705       -1.0775850103       -1.0411475557
 H          6.2730090638       -1.7726826763       -0.2534338818
 H          6.7968575443       -1.6762591231       -1.9236011337
 C          5.3760644334       -0.1677083362       -1.3979819299
 H          4.9482496266       -0.4805955855       -2.3556994442
 H          5.7257171808        0.8579546423       -1.5485790341
 H          6.9458070005        1.4977902282        2.1690555827
 H          6.2852672203        1.5764463784        0.5455568833
 H          5.8903380379       -1.0550261185        1.8816747653
 H          5.1480482006        0.2740830099        2.7471561879
 O          3.1732573253       -0.0663311317        1.6838224049
 C          1.8932314378       -0.1126822463        1.1588693213
 O          0.9848382724       -0.0973250400        2.0097487108
 O          2.7751916153       -0.2186585664       -2.3462735931
 C          0.3667700739       -0.2075415112       -0.8259864116
 C         -0.4391439083        1.0004648659       -0.4156392299
 C          0.1764785127        2.2483441220       -0.3599113524
 C         -0.5349496576        3.3732051998        0.0077147163
 C         -1.8837668876        3.2840133379        0.3035493948
 C         -2.5140370022        2.0489096722        0.2312901669
 C         -1.7912957599        0.9164108185       -0.1200745564
 H         -2.3004293476       -0.0318608859       -0.1676630234
 N         -3.8802143834        1.9219695653        0.5243281306
 S         -4.8472827098        0.9621511795       -0.4475917937
 O         -4.3781391945        0.9428318309       -1.8132286082
 O         -6.1877006266        1.4711579772       -0.2451552766
 C         -4.7479335800       -0.6672990456        0.2619872277
 C         -4.7098157362       -0.8022706619        1.6356485012
 C         -4.6849462685       -2.0756338400        2.1815921535
 C         -4.7083501107       -3.1862988893        1.3515126054
 C         -4.7529004526       -3.0337963532       -0.0255368338
 C         -4.7726760751       -1.7625352535       -0.5783460978
 H         -4.7946535564       -1.5984805947       -1.6439153704
 H         -4.7709900390       -3.8981964380       -0.6704137657
 H         -4.6903403925       -4.1760683130        1.7799357063
 H         -4.6468719211       -2.1979718457        3.2521198345
 H         -4.6904078635        0.0810884939        2.2516905630
 H         -4.3432883781        2.7854058991        0.7685713176
 H         -2.4428629521        4.1627929869        0.5873723129
 H         -0.0382754094        4.3307320242        0.0565412719
 H          1.2277967738        2.3240405945       -0.6023462611
 H          0.5138200643       -0.1593114487       -1.9160555718
 C         -0.3047196455       -1.5221582075       -0.4848659573
 C         -1.2787813317       -2.1503274254       -1.4347648887
 C          0.0826983276       -2.7488725859       -1.2533183556
 H          0.1690380175       -3.6847591144       -0.7223998182
 H          0.8072759777       -2.6268796940       -2.0452370909
 H         -2.1272341655       -2.6764344802       -1.0239784376
 H         -1.4888340349       -1.6269532907       -2.3557328011
 H         -0.4832597668       -1.6313825973        0.5791609383
