  62
        -98.93968491
 C         -2.5628020570       -0.2445633173        0.0499737542
 C         -2.3372426640       -1.2735496557       -0.8902935045
 C         -1.6994565803       -2.5010528536       -0.3852841891
 C         -1.3744961687       -2.5752460500        0.9175231858
 C         -0.6390704779       -3.6835292784        1.6195159892
 C          0.8733598123       -3.3982424361        1.6280731119
 C          1.6355192284       -3.9500308337        0.4250628476
 H          2.6677621716       -3.6023844449        0.5098692432
 H          1.6461162407       -5.0417444225        0.4705556617
 C          1.0872845800       -3.5173510001       -0.9369818816
 H          1.8841008852       -3.6366949673       -1.6746672948
 H          0.8421418516       -2.4525995078       -0.9082102897
 C         -0.1314858290       -4.3380932736       -1.3849842319
 H          0.0355651046       -4.7054920303       -2.3999367590
 H         -0.2215614039       -5.2176653173       -0.7474589840
 C         -1.4649203021       -3.5790797315       -1.4089652004
 H         -1.5725515398       -3.0702240741       -2.3725428568
 H         -2.2861519453       -4.3017759095       -1.3447253130
 H          1.3078915985       -3.8275772433        2.5334004965
 H          1.0131807543       -2.3147994233        1.6726497200
 H         -0.9997510665       -3.6905756905        2.6501685503
 H         -0.8580630041       -4.6450663998        1.1641452720
 O         -1.6420438499       -1.5729786168        1.7987784833
 C         -2.1976501323       -0.3759510109        1.3897527325
 O         -2.3328144905        0.4687443688        2.2964216541
 H         -0.4531999960        0.8030980853       -0.6546123123
 C         -0.7071284368        1.8110763108       -0.3607919868
 C         -2.0426991814        2.1597158892       -0.2030670040
 C         -2.3440486898        3.4721936295        0.1350472046
 C         -1.3287346970        4.3955546407        0.3260592565
 C         -0.0006331266        4.0308533478        0.2100575584
 C          0.3114742420        2.7161704044       -0.1240972265
 N          1.6504102328        2.2877287313       -0.1742945974
 S          2.0368420184        0.6727075172       -0.4009977854
 O          1.7637036707        0.2518279832       -1.7598119018
 O          1.4281299371       -0.0961538997        0.6535596810
 C          3.7991769937        0.7553383771       -0.1478397788
 C          4.2742417934        0.8124827405        1.1485918758
 C          5.6407558316        0.9046607879        1.3589205051
 C          6.5054184033        0.9389516711        0.2747094309
 C          6.0146953442        0.8778189892       -1.0206775634
 C          4.6485194468        0.7858582867       -1.2372005209
 H          4.2213227099        0.7257568551       -2.2252753015
 H          6.6892728767        0.9006183041       -1.8613239969
 H          7.5686355810        1.0102778631        0.4411711300
 H          6.0254104710        0.9486796143        2.3650800579
 H          3.5632317828        0.7737094715        1.9578498236
 H          2.2956369755        2.9311976536       -0.6065262666
 H          0.7883956207        4.7453648684        0.3833806916
 H         -1.5780071184        5.4139158343        0.5831431617
 H         -3.3728966061        3.7719627419        0.2516607906
 C         -3.0898393464        1.0942335748       -0.4308821429
 H         -3.2331918262        0.9807473294       -1.5169705738
 C         -4.4239035290        1.4221013366        0.2064301825
 C         -5.4529848948        2.2091602920       -0.5474110996
 C         -5.6567011291        0.7441191470       -0.3095002253
 H         -6.4087328153        0.4327173968        0.3995906608
 H         -5.5348847312        0.0670025856       -1.1425747254
 H         -5.2052662339        2.5273012856       -1.5489444399
 H         -6.0710209641        2.9052958545       -0.0006941066
 H         -4.3440608362        1.5705069305        1.2773204604
 O         -2.6436786847       -1.1643645671       -2.1116607741
