  62
        -98.93870022
 C          1.8249813165        0.9382233914        0.3536576220
 C          2.4548330041        0.2469170271       -0.7058998295
 C          3.5489743282       -0.6763088618       -0.3392001036
 C          3.8588071209       -0.8324108443        0.9613726115
 C          4.9495845440       -1.6768037937        1.5646289351
 C          6.3434069038       -1.0483172036        1.4025129174
 C          6.6280332507       -0.4598927858        0.0230699986
 H          5.8736649198        0.2944598066       -0.2076371445
 H          7.5929818741        0.0513707162        0.0733118410
 C          6.6963852441       -1.4743420435       -1.1159287053
 H          6.9853539227       -0.9299047384       -2.0185489357
 H          7.4827397237       -2.2015525906       -0.9013697554
 C          5.4019154171       -2.2335946379       -1.4142125143
 H          5.5309916979       -2.7300048347       -2.3805410572
 H          5.2321409504       -3.0211499481       -0.6848150183
 C          4.1614834658       -1.3544960864       -1.5408095224
 H          4.3596465138       -0.5582743885       -2.2673625610
 H          3.3544470076       -1.9514888644       -1.9834295360
 H          7.0925051183       -1.8055389355        1.6398544959
 H          6.4361172768       -0.2412842163        2.1333613686
 H          4.7283205412       -1.7603167798        2.6311141536
 H          4.9232822126       -2.6772828826        1.1428588851
 O          3.1969578550       -0.1684719118        1.9530095573
 C          2.1739884827        0.7194913200        1.6846825112
 O          1.6535312744        1.2336123345        2.6967898723
 H         -0.3914919272       -0.3811609998        0.8108611713
 C         -0.8828491145        0.0061832124       -0.0737426174
 C         -0.4405404277        1.2050796678       -0.6204869369
 C         -1.0910152808        1.6990960763       -1.7430198405
 C         -2.1316868671        0.9901722847       -2.3194380674
 C         -2.5526206068       -0.2138326422       -1.7870417962
 C         -1.9226615208       -0.7061116492       -0.6502738563
 N         -2.3538918968       -1.9190150864       -0.0874849138
 S         -4.0006684698       -2.1782632406        0.0557019192
 O         -4.1457255880       -3.0757911566        1.1804694267
 O         -4.5277316717       -2.6545644108       -1.1989378551
 C         -4.6994977482       -0.5804638686        0.4337089530
 C         -4.2565248481        0.0723006803        1.5671015577
 C         -4.7656109674        1.3268780347        1.8598805966
 C         -5.7050551967        1.9041880698        1.0189990752
 C         -6.1442757080        1.2333718861       -0.1115516823
 C         -5.6364469778       -0.0208053344       -0.4107480255
 H         -5.9465934533       -0.5760681073       -1.2809058146
 H         -6.8763950620        1.6837597982       -0.7620998341
 H         -6.0961938855        2.8826765433        1.2487422066
 H         -4.4240140712        1.8493004562        2.7391656328
 H         -3.5278129001       -0.4037184809        2.2040948126
 H         -1.8654813875       -2.1779734221        0.7565215166
 H         -3.3477440452       -0.7862829981       -2.2363849363
 H         -2.6192653894        1.3795332185       -3.1998841618
 H         -0.7767779153        2.6344941282       -2.1751571044
 C          0.7022930412        1.9173940178        0.0625550064
 H          0.3454293378        2.2665751994        1.0427612377
 C          1.2298688940        3.1048139159       -0.7152126661
 C          0.5823317826        4.4485926852       -0.5738748071
 C          1.9317752929        4.2000077847        0.0281350894
 H          2.7955183028        4.6612634617       -0.4267927726
 H          2.0057919413        4.1020125478        1.1017448316
 H          0.5213863842        5.0858824439       -1.4430822171
 H         -0.2618096336        4.5294132246        0.0939103605
 H          1.6268615928        2.8236402423       -1.6836726354
 O          2.1293268153        0.3908436958       -1.9131652104
