  62
        -98.94151578
 C         -2.5691052421       -0.0507452406        0.1006506794
 C         -2.5281543389        1.0976710197        0.9294996268
 C         -2.0994784557        2.3456039777        0.2916439424
 C         -1.7584016119        2.3432921468       -1.0094318077
 C         -1.2711215734        3.5264274844       -1.8002246629
 C          0.2334383731        3.7829797007       -1.6358077025
 C          0.6412538086        4.4095102093       -0.3014980352
 H          1.6669185837        4.7659805769       -0.4152202649
 H          0.0128739992        5.2776084293       -0.0973366906
 C          0.5908017463        3.4419278064        0.8892681247
 H          1.4963685740        3.5553502815        1.4912444698
 H          0.5913724366        2.4114977320        0.5239599640
 C         -0.5986227243        3.6431985369        1.8290759908
 H         -0.5570740410        2.8644805964        2.5956527859
 H         -0.5114596482        4.6122150065        2.3270158706
 C         -1.9719528301        3.5682661608        1.1497603887
 H         -2.7346236285        3.5067077939        1.9305441471
 H         -2.1475753572        4.4664580065        0.5577757017
 H          0.7624597276        2.8348577068       -1.7626250430
 H          0.5422826517        4.4543389799       -2.4406036640
 H         -1.8310674751        4.4187374286       -1.5183729581
 H         -1.4720125499        3.3034887446       -2.8502446421
 O         -1.8294453097        1.2276351079       -1.7790938462
 C         -2.1797772367       -0.0015782990       -1.2398940030
 O         -2.1218575784       -0.9412342898       -2.0555807275
 O         -2.8265734301        1.0760605660        2.1558568324
 C         -2.8615655063       -1.3861310818        0.7627999693
 C         -1.7531000680       -2.3550513639        0.4274968051
 C         -1.9502753451       -3.6750622289        0.0493727668
 C         -0.8654001343       -4.4865094196       -0.2432130992
 C          0.4259262831       -3.9982184163       -0.1934311823
 C          0.6328607033       -2.6709961841        0.1737022570
 C         -0.4485067334       -1.8819564902        0.5172824675
 H         -0.2760278288       -0.8623743542        0.8327764347
 N          1.9250486899       -2.1163500749        0.1506493489
 S          2.1828985853       -0.4866476889        0.4375331206
 O          1.9584889118       -0.1577107643        1.8306055559
 O          1.4448743458        0.2780667522       -0.5351566128
 C          3.9271238487       -0.3999939575        0.0810094358
 C          4.8390393045       -0.4014938610        1.1190532831
 C          6.1928923221       -0.3650116005        0.8233343376
 C          6.6095981652       -0.3297562941       -0.4986689568
 C          5.6825578834       -0.3262432611       -1.5305794882
 C          4.3279245053       -0.3621015597       -1.2409858231
 H          3.5700651071       -0.3529335783       -2.0074761232
 H          6.0094498681       -0.2953890019       -2.5574492119
 H          7.6632921294       -0.3017686891       -0.7269552486
 H          6.9154829452       -0.3638645513        1.6233868125
 H          4.4672831152       -0.4205236121        2.1308812966
 H          2.6603322466       -2.7168290408        0.4912527383
 H          1.2664339660       -4.6243473641       -0.4480956687
 H         -1.0328107608       -5.5133187688       -0.5314195001
 H         -2.9504784584       -4.0676488995       -0.0332373401
 H         -2.7949321907       -1.1670225044        1.8434524077
 C         -4.2577147778       -1.9407427339        0.5242169110
 C         -5.3746334222       -1.0561546594        0.0589108396
 C         -4.8271668165       -2.1123861648       -0.8509949062
 H         -5.4362878925       -2.9826721117       -1.0473218023
 H         -4.2121529585       -1.8068739521       -1.6823062977
 H         -6.3547808048       -1.1991430545        0.4888839737
 H         -5.1370160965       -0.0242473998       -0.1570821382
 H         -4.5250389738       -2.6957326158        1.2574287093
