  62
        -98.94341589
 C         -1.5392768940       -1.5623324049       -0.2125043352
 C         -1.3782940379       -0.1584264250       -0.3258553707
 C         -2.6163247727        0.6109363939       -0.5366479570
 C         -3.7976472491       -0.0289011092       -0.5850890799
 C         -5.1320832502        0.6418823623       -0.7326674820
 C         -5.7409669658        0.9745038923        0.6369107717
 C         -4.7775611231        1.6874995935        1.5860489142
 H         -5.3251855006        1.8952367651        2.5080066101
 H         -3.9621899777        1.0075283758        1.8435646617
 C         -4.1912091077        2.9941192313        1.0333788432
 H         -4.7988068147        3.3483339249        0.1997536606
 H         -4.2377735179        3.7558152953        1.8145431928
 C         -2.7299872715        2.8962142330        0.5907581910
 H         -2.1320020562        2.4540900583        1.3914310454
 H         -2.3577979044        3.9103774537        0.4248405312
 C         -2.4754815671        2.0986481039       -0.6939442433
 H         -1.4351531803        2.2670346361       -0.9860847576
 H         -3.1260109239        2.4650828697       -1.4906382491
 H         -6.0597098330        0.0423810934        1.1094729027
 H         -6.6256711663        1.5943650716        0.4798253099
 H         -5.0130841942        1.5508097945       -1.3192053638
 H         -5.8024360052       -0.0367553769       -1.2629402214
 O         -3.9146541125       -1.3751870518       -0.4481513619
 C         -2.7972558786       -2.1691267878       -0.2460122092
 O         -3.0519630084       -3.3824260941       -0.1059218633
 O         -0.2735092597        0.4354915610       -0.2574967160
 C         -0.3499466576       -2.4812264217        0.0115291071
 C          0.5649837785       -1.8821851594        1.0499290921
 C          0.1088295977       -1.7742261957        2.3610976486
 C          0.8998483216       -1.2033148326        3.3391151275
 C          2.1589653654       -0.7209986958        3.0280623933
 C          2.6233916107       -0.8262559024        1.7224139044
 C          1.8322945569       -1.4131311947        0.7449622676
 H          2.2122916548       -1.4742242387       -0.2602327861
 N          3.9006239862       -0.3596411105        1.3844433694
 S          4.2445502600        0.2501219746       -0.1285767770
 O          4.3048181057       -0.8193765637       -1.0943593734
 O          5.4823625169        0.9781537656        0.0689582204
 C          2.9596298989        1.4096487563       -0.5560949897
 C          2.3954039018        1.3569039162       -1.8122103719
 C          1.4557503418        2.3102573425       -2.1663776994
 C          1.0966927648        3.2940342570       -1.2601341019
 C          1.6659539015        3.3280088328        0.0026132159
 C          2.6099330102        2.3806614927        0.3594940287
 H          3.0734159959        2.3894628479        1.3329055614
 H          1.3730609801        4.0874067623        0.7101226049
 H          0.3647806566        4.0370134483       -1.5381608971
 H          1.0010101315        2.2758855959       -3.1442268397
 H          2.6952473337        0.5693084361       -2.4850899091
 H          4.3831151733        0.1452019006        2.1125386051
 H          2.7766473427       -0.2669843715        3.7879804647
 H          0.5317832962       -1.1248100132        4.3511512025
 H         -0.8821917578       -2.1370560481        2.5999916421
 H         -0.7766105644       -3.4089118340        0.4276832509
 C          0.3801007313       -2.8719182460       -1.2646547576
 C         -0.3590634804       -3.0442365830       -2.5568851958
 C          0.6046760850       -1.9096895349       -2.3904093731
 H          1.5493343271       -1.9544717586       -2.9137700999
 H          0.2128846061       -0.9108354743       -2.2806972745
 H         -0.0839496866       -3.8669696957       -3.1996159754
 H         -1.4163894722       -2.8219761738       -2.5605075963
 H          1.1786415783       -3.5824088528       -1.0704280593
