  62
        -98.94340054
 C         -1.9489998110       -0.8569874734        0.0466891921
 C         -2.2426990281        0.1125725798        1.0330940695
 C         -2.5718363894        1.4550479887        0.5387680358
 C         -2.5329745112        1.6950538193       -0.7847859325
 C         -2.8872439825        3.0036350851       -1.4289870906
 C         -4.3761481538        3.0571083967       -1.7996153647
 C         -5.3105268961        2.6449287975       -0.6621673472
 H         -6.3341039523        2.7494473144       -1.0280524388
 H         -5.1541200163        1.5870691480       -0.4392437998
 C         -5.1418713542        3.4630981167        0.6256039316
 H         -6.1308455610        3.7324296284        1.0020759764
 H         -4.6131322778        4.3916856908        0.4081034340
 C         -4.4219356264        2.7249821440        1.7557467036
 H         -4.5474019761        3.3032776704        2.6749890669
 H         -4.8912105812        1.7508849227        1.9150531671
 C         -2.9165264319        2.5054208520        1.5570210312
 H         -2.4328910458        3.4531881992        1.3101708890
 H         -2.5021772508        2.1486825111        2.5049918443
 H         -4.5459479042        2.3844567231       -2.6433481420
 H         -4.6151114423        4.0727521973       -2.1199534296
 H         -2.6400724605        3.8149197458       -0.7469209989
 H         -2.2894515109        3.1106314621       -2.3356895724
 O         -2.2114889849        0.7472435349       -1.7017037457
 C         -1.9124827128       -0.5497338558       -1.3131186213
 O         -1.6412517519       -1.3189594427       -2.2551447521
 H          0.5430076454       -0.6671686903        0.2876505006
 C          0.7785483437       -1.6794059122       -0.0092417736
 C         -0.2147404053       -2.6499895726        0.0116288053
 C          0.1173844601       -3.9457484420       -0.3645971419
 C          1.4084485936       -4.2513675907       -0.7590936969
 C          2.3910810307       -3.2800546467       -0.7861109313
 C          2.0679858673       -1.9780651483       -0.4163658795
 N          3.0330465537       -0.9606974548       -0.4856129556
 S          2.8566792781        0.4513202381        0.4102762848
 O          2.6315573781        0.1409749578        1.8053986024
 O          1.8759818968        1.2948671409       -0.2277571675
 C          4.4838096603        1.1481977506        0.1959329060
 C          5.4277734294        0.9931309889        1.1933965757
 C          6.6986084032        1.5121788810        1.0006799934
 C          7.0031793923        2.1707167686       -0.1810645794
 C          6.0449628390        2.3194923726       -1.1730093053
 C          4.7722811013        1.8038841909       -0.9861464741
 H          3.9921613633        1.9011083769       -1.7234115368
 H          6.2840448185        2.8347111003       -2.0893029514
 H          7.9925331563        2.5736996543       -0.3290555808
 H          7.4442844196        1.4008874165        1.7712021373
 H          5.1417995016        0.4803523232        2.0976193931
 H          3.9834110236       -1.3033080065       -0.4842648063
 H          3.3955375122       -3.5185353872       -1.1000885378
 H          1.6525106911       -5.2621274189       -1.0488706530
 H         -0.6362553073       -4.7160344764       -0.3504965610
 C         -1.5980033164       -2.2664955236        0.4799934975
 H         -1.5855774214       -2.2392943998        1.5812225063
 C         -2.6708275077       -3.2378878337        0.0285781710
 C         -3.0248817878       -4.4289693437        0.8667039508
 C         -3.9713280943       -3.2715175432        0.7724250178
 H         -4.8850326057       -3.3919409707        0.2101248927
 H         -4.0669544468       -2.6167956758        1.6266683327
 H         -3.2927075626       -5.3483555999        0.3681292341
 H         -2.4879207150       -4.5663836791        1.7931883382
 H         -2.7077765560       -3.3378615334       -1.0505499896
 O         -2.2325248806       -0.1355655241        2.2712525642
