  62
        -98.93772259
 C          1.7923942301       -0.5394156675        0.0114233630
 C          2.8743333878       -0.6499629111       -0.9022571762
 C          4.0627477249        0.1681578363       -0.6245581515
 C          4.0587374846        0.9796736534        0.4480729231
 C          5.2139466933        1.8191974104        0.9141056570
 C          6.2508179048        0.9346029846        1.6356685065
 C          7.5982776969        0.8320528648        0.9208447136
 H          8.1538706613        1.7592606370        1.0764176471
 H          8.1611075851        0.0270358838        1.3982251234
 C          7.5361836043        0.5710228348       -0.5872656536
 H          8.5371770647        0.2641127808       -0.8979114963
 H          7.3201378634        1.5026003687       -1.1125452671
 C          6.5308583891       -0.4942489638       -1.0435265172
 H          6.3172740994       -1.1930650771       -0.2344768177
 H          6.9901212872       -1.0712102218       -1.8487969962
 C          5.2071860863        0.0681255367       -1.5947166931
 H          5.3869956770        1.0466877415       -2.0486905971
 H          4.8465332178       -0.5978898392       -2.3841100846
 H          5.8246790416       -0.0635917929        1.7560810616
 H          6.4256511305        1.3241208350        2.6397425917
 H          4.8154052182        2.5708312301        1.5959351538
 H          5.6667817448        2.3252645484        0.0642959944
 O          3.0019483598        1.0704476527        1.2933147437
 C          1.8476553340        0.3238602626        1.1049343637
 O          0.9795337358        0.5342350455        1.9766931640
 O          2.8455344554       -1.4091234390       -1.9073359084
 C          0.5731619859       -1.4003875677       -0.2758642368
 C         -0.5265354688       -0.6000361864       -0.9316040287
 C         -0.9271485442       -0.8708998870       -2.2344922130
 C         -1.9547523947       -0.1526568752       -2.8217580049
 C         -2.6037632606        0.8481928573       -2.1216323580
 C         -2.2048370053        1.1300237375       -0.8214916040
 C         -1.1799602043        0.4052372475       -0.2325510175
 H         -0.8700758079        0.6362486702        0.7756700556
 N         -2.8721439429        2.1382517380       -0.0931209223
 S         -4.5164075092        1.8832985183        0.1191138673
 O         -5.2091997620        2.2306602863       -1.0962698737
 O         -4.8836884147        2.6373853236        1.2964386190
 C         -4.6511894328        0.1303830169        0.4187450101
 C         -5.0889967070       -0.7071683325       -0.5867677809
 C         -5.1035839088       -2.0739141502       -0.3595158537
 C         -4.6787174917       -2.5762206773        0.8603695536
 C         -4.2440373761       -1.7209662927        1.8614045217
 C         -4.2241027785       -0.3540670631        1.6390512841
 H         -3.8935533208        0.3409832199        2.3946490843
 H         -3.9151410198       -2.1122722654        2.8110088384
 H         -4.6870156470       -3.6409182597        1.0332920498
 H         -5.4414271154       -2.7419607323       -1.1350669886
 H         -5.4117065527       -0.2748661847       -1.5194261575
 H         -2.4351425170        2.3246040073        0.7988790265
 H         -3.4112852698        1.4146182954       -2.5568392377
 H         -2.2538922945       -0.3746376412       -3.8346675965
 H         -0.4184144053       -1.6441044807       -2.7913363968
 H          0.9190867394       -2.1472888346       -1.0025425142
 C          0.0449214340       -2.1270933554        0.9463856491
 C         -0.8416158780       -3.3190252189        0.7519373626
 C          0.5552681908       -3.4990671113        1.2641897641
 H          0.6976387327       -3.7674438707        2.3002756437
 H          1.2927822917       -3.9248558862        0.5994563143
 H         -1.6637819118       -3.4635672581        1.4349067007
 H         -1.0528658594       -3.6228295818       -0.2618252422
 H         -0.1670546306       -1.4711416679        1.7802414503
