  62
        -98.94366974
 C         -1.9265085966       -1.3377030565       -0.1691971900
 C         -1.8065088960        0.0186498548        0.2189562513
 C         -3.0206972279        0.6270168040        0.7777369828
 C         -4.1412191752       -0.1066743996        0.9043368612
 C         -5.4518180211        0.3708063344        1.4690115295
 C         -6.3342685064        1.1146035736        0.4568567155
 C         -5.8568336048        2.5182454873        0.0812165586
 H         -6.6764920914        3.0015396454       -0.4543804549
 H         -5.6779974322        3.0948349753        0.9893590683
 C         -4.6039345919        2.5459600238       -0.8054054677
 H         -4.4541730372        1.5609175237       -1.2533227737
 H         -4.7548995078        3.2509583950       -1.6259913775
 C         -3.3230301242        2.9599453061       -0.0808286772
 H         -2.4942939922        2.8998186225       -0.7905063445
 H         -3.4091046324        3.9964917596        0.2526661477
 C         -2.9756777527        2.0834718665        1.1291543511
 H         -1.9555500187        2.3166228874        1.4440359551
 H         -3.6523637887        2.2978619005        1.9559832266
 H         -6.4198499816        0.5050583476       -0.4457697822
 H         -7.3312628808        1.1988662090        0.8956302480
 H         -5.9887612338       -0.5192615814        1.8043764967
 H         -5.2682134013        1.0104867454        2.3329000742
 O         -4.2068349144       -1.4153699823        0.5389014756
 C         -3.1107274047       -2.0569585214       -0.0174835323
 O         -3.3113834408       -3.2510468036       -0.3210614289
 O         -0.7464351889        0.6840352726        0.1089322834
 C         -0.7346720285       -2.0470433040       -0.7843464366
 C          0.4672523031       -1.9409522971        0.1224392910
 C          0.3105528745       -2.1677457109        1.4871202844
 C          1.3842162582       -2.0681363910        2.3510436850
 C          2.6450285336       -1.7547652486        1.8734268237
 C          2.8161566137       -1.5405477311        0.5130573319
 C          1.7335786996       -1.6368370305       -0.3534902738
 H          1.8870589286       -1.4660942344       -1.4078561290
 N          4.1026667241       -1.2404575556        0.0179538739
 S          4.8318818375        0.1856991165        0.5074208229
 O          6.1016850626        0.2231611772       -0.1818492850
 O          4.8825652383        0.2181236799        1.9462455534
 C          3.7755660938        1.4832732698       -0.1099312536
 C          4.1544855314        2.1718074721       -1.2457867046
 C          3.3044687110        3.1388011676       -1.7569094377
 C          2.0907305572        3.3887311352       -1.1340171542
 C          1.7233782510        2.6860692770        0.0030430936
 C          2.5726979905        1.7231499160        0.5236400303
 H          2.3089108804        1.1577292901        1.4026264543
 H          0.7689290255        2.8567269870        0.4727387911
 H          1.4236246529        4.1344790253       -1.5374522908
 H          3.5863381979        3.6891921009       -2.6404022224
 H          5.1058112783        1.9414861211       -1.6980509379
 H          4.1679433327       -1.3110165809       -0.9883042980
 H          3.4898358733       -1.6561598310        2.5351890056
 H          1.2406711598       -2.2389230694        3.4076246443
 H         -0.6726378308       -2.4139555462        1.8655573815
 H         -1.0141909273       -3.1081929690       -0.8605453752
 C         -0.4867171179       -1.5063108980       -2.1785406933
 C          0.0894602172       -2.3870308690       -3.2455600494
 C         -1.3534093398       -1.9861763328       -3.3022176973
 H         -1.6642339193       -1.2767815656       -4.0544898375
 H         -2.1028574674       -2.7278514259       -3.0661456326
 H          0.7672197307       -1.9525941200       -3.9653408547
 H          0.3198880315       -3.4084510826       -2.9823266618
 H         -0.2105971727       -0.4575622285       -2.1729123776
