  62
        -98.94288127
 C         -2.3532123763       -0.9106588482        0.4067220853
 C         -2.5206264536        0.1607274054       -0.5036861932
 C         -3.5026486055        1.1860832144       -0.1166851836
 C         -4.1510494863        1.0789021008        1.0565582674
 C         -5.2061880414        2.0257330755        1.5482123470
 C         -6.6068130571        1.5677378850        1.1180905007
 C         -6.7144990141        1.2237347067       -0.3675049844
 H         -6.1020169925        0.3432725203       -0.5750415067
 H         -7.7524999546        0.9458003448       -0.5626761030
 C         -6.3031161015        2.3603653801       -1.3136664835
 H         -7.0423731813        2.4345721013       -2.1140418924
 H         -6.3103791911        3.3100083006       -0.7774693741
 C         -4.9410877539        2.1670982388       -1.9829619667
 H         -4.8485652305        2.9052831251       -2.7842248274
 H         -4.8968945862        1.1771971740       -2.4442102219
 C         -3.7191460299        2.3283059075       -1.0697978895
 H         -2.8307335553        2.3605095709       -1.7072852162
 H         -3.7865300001        3.2740436737       -0.5283583985
 H         -6.8729747696        0.6792080486        1.6952114686
 H         -7.3187289090        2.3579771066        1.3631149195
 H         -5.1613711706        2.0531608947        2.6382011570
 H         -5.0032430480        3.0221378688        1.1606902169
 O         -3.9470158336        0.0511019945        1.9180900955
 C         -3.0610077025       -0.9654512626        1.6130666984
 O         -2.9904831421       -1.8564799415        2.4825282455
 H          0.1817913107       -0.2999174254       -1.1411352001
 C          0.6958209434       -0.7570583528       -0.3086023259
 C          0.0239082616       -1.6814653229        0.4782428026
 C          0.6928847001       -2.2458627617        1.5581786283
 C          1.9995162630       -1.8891902854        1.8414452335
 C          2.6637280797       -0.9623571483        1.0580442247
 C          2.0040385284       -0.3919400468       -0.0226620015
 N          2.6562632204        0.5712816372       -0.8101169291
 S          4.2098102303        0.2538026566       -1.3556188818
 O          4.3709114927        1.0662534018       -2.5415966677
 O          4.4389423450       -1.1638848080       -1.5130864765
 C          5.2552343232        0.9015408861       -0.0672604998
 C          6.2155123680        0.0963268406        0.5131675337
 C          7.0262780003        0.6278672109        1.5041824860
 C          6.8640199051        1.9482803759        1.8942952270
 C          5.8963492074        2.7445920944        1.2998352350
 C          5.0835775333        2.2195718510        0.3080389683
 H          4.3230470142        2.8055746412       -0.1805186385
 H          5.7726984266        3.7710560858        1.6057040325
 H          7.4953463325        2.3596451642        2.6659974886
 H          7.7793508031        0.0107842123        1.9673781616
 H          6.3024556066       -0.9261345984        0.1814179797
 H          2.0781734527        0.9428319673       -1.5502127463
 H          3.6810301095       -0.6800500970        1.2747993025
 H          2.5061114570       -2.3355339608        2.6835723921
 H          0.1755512558       -2.9594831410        2.1831195659
 C         -1.4011425440       -2.0731581318        0.1654261934
 H         -1.6973297584       -2.8481015530        0.8848693651
 C         -1.5169171879       -2.6528565841       -1.2313572278
 C         -1.0343799500       -4.0491231916       -1.4783833884
 C         -2.5030178467       -3.7499260033       -1.4904616034
 H         -3.0257798178       -3.7602651862       -2.4351796607
 H         -3.1000471381       -4.0926585733       -0.6576323712
 H         -0.6355323169       -4.5960629169       -0.6373788709
 H         -0.5441823662       -4.2665401280       -2.4150890803
 H         -1.3708190277       -1.9238612642       -2.0173432333
 O         -1.8959342086        0.2811820576       -1.5926532373
