  62
        -98.93787471
 C         -0.9056919642       -1.0043017445        0.7651834823
 C         -1.4212909074       -0.6284190214       -0.4995050551
 C         -2.3636193592        0.5024746429       -0.4913778435
 C         -2.6365723448        1.1315862113        0.6647582069
 C         -3.6360857810        2.2403701711        0.8246004451
 C         -5.0237581327        1.6854090039        1.1774318686
 C         -5.4831197652        0.5422237702        0.2720923990
 H         -4.8318239657       -0.3206997079        0.4291006168
 H         -6.4838318952        0.2519461646        0.5998004002
 C         -5.5147981197        0.8877407387       -1.2233146389
 H         -6.4484145324        0.5133480923       -1.6484003710
 H         -5.5120745757        1.9705965262       -1.3527409169
 C         -4.3751303452        0.2756733415       -2.0401216538
 H         -4.6118308309        0.4012283591       -3.0998771416
 H         -4.3182237355       -0.7975345021       -1.8424939056
 C         -2.9876262666        0.8855125032       -1.8032352679
 H         -2.3166450933        0.5006555616       -2.5760484505
 H         -3.0461609215        1.9705633816       -1.9012773410
 H         -5.7452782605        2.5030801770        1.1287627500
 H         -4.9978254585        1.3170883324        2.2058132798
 H         -3.6890505439        2.8143965780       -0.0984592276
 H         -3.3038665583        2.8942036356        1.6331998642
 O         -2.0573861691        0.7925227335        1.8462559481
 C         -1.2017564239       -0.2918058507        1.9284749399
 O         -0.7734089676       -0.5185238910        3.0798371942
 O         -1.1331541590       -1.1998038024       -1.5794179113
 C          0.0013948461       -2.2186882381        0.9340474286
 C          1.1568691948       -2.1297920208       -0.0312638707
 C          1.2914959651       -2.8019882679       -1.2399756640
 C          2.4077700609       -2.6059523087       -2.0351438663
 C          3.4051252012       -1.7240257809       -1.6648810358
 C          3.2743260601       -1.0283026493       -0.4693562159
 C          2.1655191631       -1.2411822629        0.3330039671
 H          2.0847149878       -0.6982189265        1.2643404614
 N          4.2539183195       -0.1095531875       -0.0569344775
 S          3.7683674271        1.3030050494        0.6850876725
 O          4.8536774645        2.2298892909        0.4388496869
 O          3.4605485547        1.0629929748        2.0724305374
 C          2.3149025073        1.8535157472       -0.1924179376
 C          1.2022234605        2.2499191603        0.5194344694
 C          0.1086664827        2.7508502360       -0.1683519657
 C          0.1381460622        2.8258269189       -1.5513812284
 C          1.2582324578        2.4115167216       -2.2541815728
 C          2.3620736483        1.9301510335       -1.5704726183
 H          3.2536772258        1.6219558111       -2.0915103034
 H          1.2752524207        2.4669704950       -3.3305599394
 H         -0.7166532958        3.2112378151       -2.0834256059
 H         -0.7608226865        3.0761375678        0.3798768807
 H          1.2071578501        2.1564161998        1.5947558925
 H          4.9964714421        0.0495056419       -0.7222153781
 H          4.2712883029       -1.5712639082       -2.2901765396
 H          2.4926931954       -3.1426530181       -2.9677356395
 H          0.5198455802       -3.4606202641       -1.5929302783
 H          0.4374701061       -2.0989302101        1.9390878783
 C         -0.8514957537       -3.4783035638        1.0213454941
 C         -1.5611833936       -4.1274263110       -0.1267267972
 C         -0.4306001072       -4.8390319681        0.5561398852
 H         -0.6719010379       -5.6818281749        1.1870873161
 H          0.5132010917       -4.9346725236        0.0446415008
 H         -2.5663388482       -4.4856605239        0.0469589253
 H         -1.4234671644       -3.7112782107       -1.1111378521
 H         -1.4141570772       -3.4524139645        1.9526895680
