  62
        -98.94375976
 C          1.4761614334       -1.2621851414       -0.7105516867
 C          2.5272770644       -1.1782879921        0.2344167022
 C          3.4220218521       -0.0174049002        0.0923837982
 C          3.1553486374        0.9186859371       -0.8359184499
 C          3.9507559278        2.1752127703       -1.0411185568
 C          3.4267978787        3.3307378883       -0.1763430142
 C          3.2196481653        2.9632108258        1.2925994742
 H          2.8658656826        3.8595187825        1.8068141180
 H          2.4281069648        2.2139932468        1.3689548755
 C          4.4729162606        2.4271420290        1.9970438273
 H          5.3631776998        2.6877815474        1.4234709069
 H          4.5628618243        2.9101563665        2.9723192677
 C          4.4525693984        0.9179385424        2.2441056347
 H          3.5190387322        0.6389378242        2.7393381699
 H          5.2700603826        0.6732872922        2.9276155955
 C          4.6206776787        0.0391017467        0.9985229490
 H          5.5039410525        0.3595681602        0.4416921704
 H          4.7846333046       -0.9870180617        1.3405185582
 H          4.1333811873        4.1597040488       -0.2467168862
 H          2.4706111328        3.6672790235       -0.5827735280
 H          4.9941690679        1.9774406290       -0.8018776312
 H          3.8784482030        2.4584096949       -2.0925181953
 O          2.0933760850        0.8406077309       -1.6777029369
 C          1.2438328994       -0.2500260153       -1.6477505107
 O          0.3295933467       -0.2123147600       -2.4944878237
 H         -1.9686535866       -1.4844124084       -1.3029329095
 C         -1.8323166220       -1.6227935834       -0.2384713283
 C         -0.6234337763       -2.1173307090        0.2315916723
 C         -0.4467161239       -2.2521919018        1.6044166937
 C         -1.4620009803       -1.9067903621        2.4787486802
 C         -2.6685352353       -1.4182187246        2.0066259174
 C         -2.8483103926       -1.2703099508        0.6385372167
 N         -4.0671108918       -0.7378661952        0.1548720770
 S         -4.2863261810        0.8975387764        0.4511605331
 O         -4.3110665626        1.1083677900        1.8754206213
 O         -5.4770242248        1.2728336086       -0.2758956602
 C         -2.8550657525        1.6818491130       -0.2663359157
 C         -1.6835377003        1.7283969990        0.4618871687
 C         -0.5524946209        2.2658786615       -0.1294919642
 C         -0.6078514294        2.7377040145       -1.4309439861
 C         -1.7915797182        2.6818858673       -2.1489815803
 C         -2.9263045498        2.1440502194       -1.5650581886
 H         -3.8670869248        2.0813326621       -2.0886592451
 H         -1.8274217039        3.0442927638       -3.1636958810
 H          0.2812182204        3.1363887920       -1.8936473211
 H          0.3728562242        2.3024957584        0.4236231459
 H         -1.6735164907        1.3497357542        1.4715928760
 H         -4.1987151602       -0.9017248128       -0.8343445977
 H         -3.4612694227       -1.1250615139        2.6754472014
 H         -1.3119990577       -2.0158494896        3.5423264949
 H          0.5021258126       -2.6020922924        1.9804262204
 C          0.4825451415       -2.4147991960       -0.7505993468
 H          0.0452941969       -2.3927012289       -1.7579139777
 C          1.1068870215       -3.7770572818       -0.5347353994
 C          0.3412179862       -4.9933095362       -0.9578775392
 C          1.5580876911       -4.5694264207       -1.7230652274
 H          2.4566642742       -5.1614216941       -1.6354129948
 H          1.4189070069       -4.1316739880       -2.7011169980
 H          0.4012547041       -5.8789775808       -0.3443580146
 H         -0.6242969757       -4.8422813732       -1.4171625289
 H          1.7091683509       -3.8471384733        0.3602551977
 O          2.7364005832       -2.0165515093        1.1497280030
