  62
        -98.94255314
 C         -2.7111978898       -1.2048504701        0.1760379699
 C         -2.5953990198       -0.3166772303       -0.9208262403
 C         -3.5589472297        0.7941087697       -0.9486885105
 C         -4.4859775197        0.8920472699        0.0208788194
 C         -5.4784441097        2.0100878100        0.1498725192
 C         -4.9231617996        3.1429183701        1.0250464090
 C         -3.5132799796        3.5903136200        0.6381811690
 H         -3.2397997496        4.4119436101        1.3037009389
 H         -2.8132967496        2.7741109100        0.8322988992
 C         -3.3688601695        4.0449948597       -0.8209495811
 H         -4.3512342795        4.2708651797       -1.2373297411
 H         -2.7869878895        4.9687533797       -0.8435780612
 C         -2.6518104496        3.0445778395       -1.7294831409
 H         -1.7072557896        2.7425633896       -1.2696250708
 H         -2.4125047995        3.5495386894       -2.6691645610
 C         -3.4426629196        1.7776256995       -2.0789901607
 H         -4.4297780396        2.0509187595       -2.4569670308
 H         -2.9014916596        1.2570065593       -2.8744483906
 H         -5.6061169296        3.9922188302        0.9640996289
 H         -4.8999440397        2.7991234703        2.0617565491
 H         -5.7240479196        2.3883170898       -0.8404736408
 H         -6.3840972497        1.6153583601        0.6133069593
 O         -4.5892031098       -0.0013614899        1.0379060196
 C         -3.6950669798       -1.0509363499        1.1555202098
 O         -3.8796037999       -1.7724251697        2.1562733199
 H          0.4288589102       -1.9008269505       -1.2854846199
 C          0.6013729002       -1.5698156504       -0.2739756400
 C         -0.3820002499       -1.7451504701        0.6857727100
 C         -0.1395865899       -1.2918139599        1.9801973799
 C          1.0548577202       -0.6750897099        2.2989382299
 C          2.0274046902       -0.4821817902        1.3322743098
 C          1.7953216002       -0.9290178204        0.0388598899
 N          2.7482155602       -0.7020612206       -0.9611373001
 S          4.3843313202       -0.7768843906       -0.6443662900
 O          5.0075545502       -0.9579818809       -1.9370916500
 O          4.6913374701       -1.7723487905        0.3567085501
 C          4.7809544203        0.8474912895       -0.0301738503
 C          4.2909069304        1.9444304994       -0.7112982905
 C          4.6063498904        3.2131620994       -0.2519215907
 C          5.4058925204        3.3636709696        0.8713113793
 C          5.8935029703        2.2526053197        1.5418289595
 C          5.5799651203        0.9806544796        1.0884425197
 H          5.9300998302        0.0888685197        1.5835508098
 H          6.5146571903        2.3713900198        2.4150559695
 H          5.6487902904        4.3527518096        1.2264310891
 H          4.2265156005        4.0790981594       -0.7700238209
 H          3.6711822204        1.7888621292       -1.5788013005
 H          2.5042493602       -1.0635037407       -1.8702414700
 H          2.9587750502        0.0030063098        1.5742552898
 H          1.2305474301       -0.3329927798        3.3076597398
 H         -0.9080812299       -1.4228781398        2.7298273899
 C         -1.7279311099       -2.3497449001        0.3663024501
 H         -2.0725526799       -2.8993503400        1.2523560102
 C         -1.7195480899       -3.2942015403       -0.8167513597
 C         -1.0923627100       -4.6470556504       -0.6698103295
 C         -2.5814631900       -4.5185848703       -0.7790588296
 H         -3.0616946900       -4.8384774804       -1.6916812195
 H         -3.1760588700       -4.6842887701        0.1075588705
 H         -0.6739459300       -4.9000043602        0.2928606306
 H         -0.5486453300       -5.0592624105       -1.5063356094
 H         -1.6229501699       -2.7900693105       -1.7700669698
 O         -1.7385325097       -0.4333422305       -1.8355519203
