  62
        -98.94008670
 C          2.6250490234        1.1491588898        0.2745912713
 C          2.5741321356        0.3115557678       -0.8674450884
 C          3.4409702536       -0.8776233671       -0.8282793777
 C          4.2046682349       -1.1084727105        0.2540450135
 C          5.0846570340       -2.3089884538        0.4453115533
 C          4.3293176026       -3.4421263060        1.1542216697
 C          2.9614380697       -3.7498284189        0.5443468963
 H          2.5348164120       -4.5828280380        1.1075857293
 H          2.3022734784       -2.8911523387        0.6940913502
 C          2.9966821736       -4.1059161096       -0.9485482358
 H          4.0098917124       -4.3875821855       -1.2374201082
 H          2.3582723841       -4.9760039872       -1.1152934141
 C          2.4939447393       -2.9992215395       -1.8776469693
 H          1.5170531716       -2.6471657953       -1.5358751990
 H          2.3565792950       -3.4285560693       -2.8734740233
 C          3.4173246491       -1.7835500324       -2.0271325657
 H          4.4261239036       -2.1153148027       -2.2806101692
 H          3.0350947943       -1.1773742593       -2.8535467462
 H          4.9503657569       -4.3393327061        1.1299022001
 H          4.1822347758       -3.1593655539        2.1993904735
 H          5.4437283739       -2.6481016685       -0.5243306166
 H          5.9392607796       -2.0157820953        1.0574203758
 O          4.2167281948       -0.2894943793        1.3376431791
 C          3.4135663001        0.8386890185        1.3847564951
 O          3.4835072954        1.4708607153        2.4585486660
 H          0.2162578691        0.4745965720        1.3693560673
 C         -0.3075347678        1.0211596426        0.5927881826
 C          0.3453900002        2.0662688083       -0.0508265887
 C         -0.3381219295        2.7632866239       -1.0373155673
 C         -1.6326931022        2.4081773102       -1.3754151111
 C         -2.2707860918        1.3565529868       -0.7449890930
 C         -1.5987655026        0.6551795539        0.2479042197
 N         -2.2314778206       -0.4289413532        0.8827025765
 S         -3.7697571126       -0.1907026289        1.5121366558
 O         -3.9694992172        1.1825560613        1.9143651808
 O         -3.9116411862       -1.1899695544        2.5490138412
 C         -4.8567178276       -0.5982243470        0.1626358521
 C         -4.7130678807       -1.8332941467       -0.4385431379
 C         -5.5589072369       -2.1710409607       -1.4828309408
 C         -6.5305886442       -1.2748857889       -1.9031792373
 C         -6.6641178562       -0.0401945643       -1.2867919205
 C         -5.8203119100        0.3045276605       -0.2422639702
 H         -5.8825754821        1.2552188665        0.2628572575
 H         -7.4201038558        0.6548201987       -1.6151677916
 H         -7.1876008989       -1.5408456781       -2.7161232625
 H         -5.4573852433       -3.1299468154       -1.9650984840
 H         -3.9472682484       -2.5012198637       -0.0806593164
 H         -1.6453141096       -0.9052450937        1.5527719866
 H         -3.2750249698        1.0720925233       -1.0136031065
 H         -2.1495374888        2.9544027379       -2.1496929574
 H          0.1489655402        3.5706802044       -1.5584123579
 C          1.7537579839        2.3885196287        0.3884500931
 H          1.7194888445        2.6116539744        1.4685501562
 C          2.3309235988        3.6242639712       -0.2859507015
 C          3.8090875195        3.7795577271       -0.4806806622
 C          2.9135488438        3.5869210993       -1.6655693598
 H          2.7405548585        4.4312483532       -2.3168443787
 H          2.9269086302        2.6367505247       -2.1747564247
 H          4.2471266309        4.7525688404       -0.3156004082
 H          4.4436609432        2.9593487714       -0.1770365027
 H          1.7897038782        4.5238235269       -0.0086287023
 O          1.8479530135        0.5298945973       -1.8698114215
