  62
        -98.93367641
 C         -2.6011426371       -1.2444185262        0.0229340626
 C         -2.7328325136       -0.1118810808       -0.8124673265
 C         -4.0832664794        0.4709280993       -0.9188902725
 C         -5.1000707125       -0.0827221539       -0.2319579436
 C         -6.5738278350        0.2633339777       -0.1811121805
 C         -7.0820882982        1.5998149404       -0.7154990020
 C         -6.6281136664        2.8221760342        0.0817119951
 H         -6.9637778514        3.7178045821       -0.4455698996
 H         -7.1230685524        2.8049574048        1.0560580266
 C         -5.1254965024        2.9268332958        0.3312825691
 H         -4.9452616629        3.8365788382        0.9104947759
 H         -4.7952579559        2.0863562620        0.9454238130
 C         -4.2560197970        2.9960623729       -0.9226259641
 H         -3.2354664385        3.2233641563       -0.6021935144
 H         -4.5964139856        3.8134749067       -1.5612488466
 C         -4.1994645006        1.7078959369       -1.7618781579
 H         -5.0492386556        1.6365043061       -2.4364272365
 H         -3.2943621678        1.7455921167       -2.3750252438
 H         -6.8211085048        1.7102971333       -1.7637960984
 H         -8.1735498941        1.5597278325       -0.6637123089
 H         -7.0858948764       -0.5415384407       -0.7200445889
 H         -6.8660173956        0.1637228747        0.8691159161
 O         -4.9211001073       -1.1817013190        0.5600357764
 C         -3.6836566399       -1.7784220312        0.7176905648
 O         -3.6772531554       -2.7573942964        1.4918378905
 H          1.2763461065       -1.2506731702       -0.7213649674
 C          0.9895245896       -0.6901732440        0.1549688865
 C         -0.2525230591       -0.8995796770        0.7314336419
 C         -0.5880746883       -0.1675446170        1.8674561046
 C          0.2885175339        0.7598970303        2.3957032495
 C          1.5204132713        0.9811353700        1.8045075469
 C          1.8704746220        0.2496478302        0.6787182853
 N          3.1144236583        0.4753841362        0.0548026871
 S          4.4937166912        0.4400783198        1.0302660579
 O          4.5616813086       -0.8138212186        1.7499933443
 O          4.5219041465        1.6319693398        1.8387142817
 C          5.7724191781        0.5162834950       -0.2080526920
 C          6.3655548079       -0.6522993898       -0.6463228379
 C          7.3389161494       -0.5813446544       -1.6305496146
 C          7.6979754238        0.6495886036       -2.1586377767
 C          7.0935912428        1.8138951920       -1.7080129531
 C          6.1203401307        1.7501034189       -0.7237413174
 H          5.6294648543        2.6280402582       -0.3376473652
 H          7.3775330677        2.7690698364       -2.1194526970
 H          8.4557283656        0.7019574799       -2.9244163731
 H          7.8127526433       -1.4842115872       -1.9808827373
 H          6.0629525258       -1.5864740589       -0.2007603127
 H          3.2455781269       -0.1405416700       -0.7372965037
 H          2.2131712177        1.7011163353        2.2082133827
 H          0.0110357895        1.3211017458        3.2757984601
 H         -1.5517546533       -0.3361803869        2.3301665894
 C         -1.2457668825       -1.9042099265        0.1985131515
 H         -1.3832527888       -2.6817886161        0.9643951593
 C         -0.8185094908       -2.5654400411       -1.0951963412
 C          0.1021128459       -3.7476786106       -1.0706162892
 C         -1.3447713711       -3.9309297686       -1.4152139905
 H         -1.6081399366       -4.1555322050       -2.4378481173
 H         -1.9928163762       -4.3950324511       -0.6858705574
 H          0.8310304957       -3.8523952385       -1.8602997917
 H          0.4421665506       -4.0964476935       -0.1069959037
 H         -0.7295657331       -1.8598495336       -1.9133326725
 O         -1.7716840919        0.3894721875       -1.4518562579
