  62
        -98.94106992
 C         -1.7314097724        1.0697036886       -0.0190233297
 C         -2.1613618472       -0.1179698607        0.6231696820
 C         -3.6159541772       -0.2590410155        0.7906778987
 C         -4.4434032624        0.7097887756        0.3616341955
 C         -5.9426042503        0.7187029375        0.4883964481
 C         -6.6666871728       -0.0463946713       -0.6278242894
 C         -6.5514045662       -1.5694693072       -0.5531365082
 H         -6.8402920963       -1.9063373431        0.4429464409
 H         -7.2762419595       -1.9804394408       -1.2586895873
 C         -5.1599557683       -2.1173847209       -0.9003424510
 H         -4.5866646373       -1.3503965004       -1.4260749618
 H         -5.2616493819       -2.9640349230       -1.5829658905
 C         -4.3499164973       -2.6012198793        0.3026494077
 H         -3.3690426299       -2.9280871233       -0.0525494184
 H         -4.8472091178       -3.4607862679        0.7577052467
 C         -4.1282794982       -1.5361645395        1.3846191894
 H         -5.0525657464       -1.3588461219        1.9343205959
 H         -3.3716964674       -1.9073142423        2.0806239814
 H         -7.7247285443        0.2196826078       -0.5716154952
 H         -6.2875120718        0.3008783610       -1.5917007242
 H         -6.2312728202        0.3112396036        1.4576943644
 H         -6.2520263501        1.7652171460        0.4445828856
 O         -3.9904131473        1.8381856596       -0.2466232223
 C         -2.6380307312        2.0281597112       -0.4809344795
 O         -2.3713772250        3.0753119082       -1.1032636161
 O         -1.3909329630       -1.0201824539        1.0402932114
 C         -0.2636385080        1.3458690198       -0.2977654093
 C          0.4158236958        0.0995202664       -0.8077150648
 C          0.0006516846       -0.4371850833       -2.0241971407
 C          0.5887899436       -1.5793025286       -2.5305382404
 C          1.6228578282       -2.1968081778       -1.8482057019
 C          2.0444211854       -1.6691947969       -0.6344051217
 C          1.4405982104       -0.5293821923       -0.1199692893
 H          1.7522880024       -0.1732331816        0.8467348960
 N          3.0897203134       -2.2683833592        0.0806260299
 S          4.1417593519       -1.3352291764        0.9753730686
 O          5.3566024827       -2.1210417437        1.0342045037
 O          3.5645258341       -0.9848751989        2.2483248400
 C          4.4184295151        0.1393504421        0.0071264307
 C          4.8302921702        0.0040048622       -1.3038961807
 C          5.0389697256        1.1443120050       -2.0622697720
 C          4.8367297854        2.3952916522       -1.4997773693
 C          4.4328578289        2.5154304045       -0.1794044150
 C          4.2201743006        1.3775322144        0.5826245155
 H          3.8997097224        1.4249611894        1.6113480963
 H          4.2787422602        3.4893212484        0.2577931693
 H          4.9955951605        3.2822063791       -2.0925614134
 H          5.3559873530        1.0550061022       -3.0887306252
 H          4.9865148199       -0.9809845855       -1.7121612048
 H          3.5508636993       -3.0360501204       -0.3834932323
 H          2.0869614961       -3.0879229531       -2.2425685732
 H          0.2468787101       -1.9900459559       -3.4686581081
 H         -0.8039661976        0.0486042708       -2.5599637664
 H         -0.2652787813        2.0847715111       -1.1163437395
 C          0.4814320746        1.9885957730        0.8622383972
 C         -0.2175075336        2.8870103332        1.8368407130
 C          0.2868747758        1.5480672396        2.2805380649
 H          1.1499809194        1.5053129958        2.9297265487
 H         -0.4280003373        0.7617421672        2.4657310741
 H          0.2976949125        3.7720018020        2.1785553822
 H         -1.2835286335        3.0199557517        1.7219358411
 H          1.4881827891        2.2796423290        0.5773451126
