  62
        -98.93823782
 C         -2.4538659865       -0.6298250423        0.2756698883
 C         -2.6572591683        0.7708910985        0.3833464359
 C         -3.8097425796        1.3227228178       -0.3384514792
 C         -4.5714881462        0.4994747844       -1.0812980058
 C         -5.8030011071        0.9123582349       -1.8328987306
 C         -7.0615717086        0.7467152093       -0.9696388826
 C         -6.9384278979        1.3606055840        0.4249574063
 H         -7.8943014563        1.2108732149        0.9315973150
 H         -6.1847392686        0.8090324134        0.9915872448
 C         -6.5844185268        2.8543109950        0.4319056110
 H         -6.7920526831        3.2886344897       -0.5466582600
 H         -7.2261368364        3.3624477954        1.1548149540
 C         -5.1387178690        3.1624994127        0.8264058332
 H         -4.8975165567        2.6505180467        1.7613899776
 H         -5.0592315394        4.2369968732        1.0117910289
 C         -4.0703232613        2.7974880600       -0.2122358001
 H         -4.3368876961        3.2257363551       -1.1806197784
 H         -3.1248764481        3.2422252749        0.1115863651
 H         -7.9035221750        1.1999721035       -1.4961187374
 H         -7.2657812651       -0.3205601191       -0.8570456385
 H         -5.6992917998        1.9486747581       -2.1485336425
 H         -5.8937519139        0.2797964485       -2.7175306429
 O         -4.3263325632       -0.8288188018       -1.1926689476
 C         -3.2756653702       -1.4333601596       -0.5156771177
 O         -3.2047755993       -2.6618282093       -0.7104070854
 O         -1.9086921927        1.5245439407        1.0624928395
 C         -1.2775328591       -1.2094249913        1.0442488319
 C         -0.0983371007       -1.4177901330        0.1231812384
 C         -0.0635539204       -2.4567575273       -0.8006110928
 C          1.0285369136       -2.6129392683       -1.6349036710
 C          2.1038988881       -1.7448208138       -1.5672895647
 C          2.0794319929       -0.7037613720       -0.6491586743
 C          0.9834222811       -0.5508959731        0.1911677405
 H          0.9589748082        0.2684202063        0.8974935960
 N          3.1597127911        0.1955320342       -0.5866654789
 S          4.7136483057       -0.4669666966       -0.6508071161
 O          5.0505564481       -0.7066432224       -2.0316832527
 O          4.7986445662       -1.6120204170        0.2277776366
 C          5.6956081590        0.8775622478       -0.0160784890
 C          6.0917262392        1.8803888792       -0.8804961190
 C          6.8412412804        2.9347455273       -0.3835918131
 C          7.1795854442        2.9689781265        0.9611126334
 C          6.7761349760        1.9542648517        1.8160106204
 C          6.0253880925        0.8973067431        1.3259476009
 H          5.6998309159        0.0818084379        1.9518587221
 H          7.0439949325        1.9818123292        2.8599873312
 H          7.7644291191        3.7899081869        1.3449289543
 H          7.1598264428        3.7239706487       -1.0452879399
 H          5.8143006569        1.8064771504       -1.9190253795
 H          3.0694514971        0.8462989915        0.1817219255
 H          2.9620117038       -1.8629710051       -2.2092864733
 H          1.0435825047       -3.4226186821       -2.3493781365
 H         -0.9070975264       -3.1247665917       -0.8756541415
 H         -0.9995486828       -0.4286277335        1.7652240833
 C         -1.6198271231       -2.4680243510        1.8156160102
 C         -0.7263963202       -2.8899397576        2.9420382479
 C         -2.0945969413       -2.3512757984        3.2316524771
 H         -2.8569530665       -3.0335040495        3.5765057292
 H         -2.1736913189       -1.3596701643        3.6532090496
 H         -0.5452084575       -3.9435974939        3.0883200093
 H          0.1242893144       -2.2637950255        3.1658500116
 H         -2.0646671853       -3.2438598010        1.2071880322
