  62
        -98.94499785
 C         -2.5493892399       -0.1473379216        0.4425985570
 C         -2.4106455587        0.5345614151       -0.7899901490
 C         -2.2148239623        1.9876795588       -0.6994318389
 C         -2.1779013682        2.5746467193        0.5103496122
 C         -1.9773242928        4.0435996495        0.7459083919
 C         -0.4977630492        4.3966837305        0.9447340006
 C          0.4333858687        3.8306926865       -0.1278164961
 H          1.4349617628        4.2114124431        0.0864548749
 H          0.4851464518        2.7438326869       -0.0269668072
 C          0.0490402331        4.1951600897       -1.5683841197
 H         -0.6080875962        5.0660212276       -1.5689556075
 H          0.9567671217        4.4724352181       -2.1084032854
 C         -0.6072871626        3.0604148092       -2.3574712015
 H         -0.0183598430        2.1471295060       -2.2365684885
 H         -0.5908135459        3.3278144247       -3.4176391552
 C         -2.0621819063        2.7447355874       -1.9880952135
 H         -2.6474333556        3.6666469779       -1.9683093550
 H         -2.4709574939        2.0928032948       -2.7657253682
 H         -0.4079827120        5.4849443396        0.9692751914
 H         -0.1746059968        4.0060182834        1.9127529752
 H         -2.3813195208        4.5958151972       -0.1007115558
 H         -2.5295041127        4.3216324504        1.6457975276
 O         -2.3095436138        1.8849988968        1.6738776075
 C         -2.4739229539        0.5095631598        1.6687375339
 O         -2.5522951366       -0.0045555030        2.8054945960
 H         -0.1675459993       -0.8964100411        0.5043004919
 C         -0.2973249414       -1.7731932214       -0.1135444437
 C         -1.5665039267       -2.3154112306       -0.2668809252
 C         -1.7102416958       -3.4542147974       -1.0489339319
 C         -0.6081080653       -4.0197327264       -1.6675482282
 C          0.6500865616       -3.4653866544       -1.5262887283
 C          0.8035920680       -2.3216019301       -0.7484471579
 N          2.0579723096       -1.7001357348       -0.6346333439
 S          2.3579549529       -0.5900534350        0.5920121657
 O          2.1171738971       -1.1893954335        1.8876890287
 O          1.6484027723        0.6300061803        0.3037132896
 C          4.1075119180       -0.3430658546        0.3556499743
 C          4.5305394569        0.5845442122       -0.5771576985
 C          5.8904078009        0.7555896440       -0.7829104948
 C          6.7995011202       -0.0002806560       -0.0576910270
 C          6.3603157425       -0.9257808729        0.8770979608
 C          5.0017107214       -1.1017222377        1.0873549791
 H          4.6138354711       -1.8000265323        1.8115558089
 H          7.0691488736       -1.5090782117        1.4423496249
 H          7.8571315207        0.1353674907       -0.2194818015
 H          6.2352241587        1.4769248212       -1.5060261552
 H          3.7866114763        1.1540519560       -1.1097672750
 H          2.8379577504       -2.3196762284       -0.8011669783
 H          1.5050314299       -3.9019500666       -2.0190280109
 H         -0.7325302835       -4.9053552157       -2.2721243994
 H         -2.6847456347       -3.8967419425       -1.1762413883
 C         -2.7191276851       -1.6547842751        0.4521004301
 H         -2.6786545366       -1.9596465684        1.5094489917
 C         -4.0725481647       -2.0345026227       -0.1147923711
 C         -4.8043047606       -3.2352980888        0.4028369760
 C         -5.2876051553       -1.8587206262        0.7439498312
 H         -6.1964497689       -1.4991697512        0.2855317434
 H         -5.1310474205       -1.4932650762        1.7488985354
 H         -5.3871162859       -3.8225166940       -0.2907601941
 H         -4.3315085939       -3.8113511805        1.1841080921
 H         -4.1622460086       -1.7902282775       -1.1670580710
 O         -2.4590196299       -0.0395164396       -1.9097976627
