  62
        -98.93395998
 C         -2.4565236100       -1.2499875196        0.3447223498
 C         -2.5515454296       -0.3735991697       -0.7612360304
 C         -3.5405453195        0.7225113705       -0.6589752407
 C         -4.2583248997        0.8508772807        0.4714845591
 C         -5.2859993197        1.8968335108        0.8132398087
 C         -4.6547520196        3.2502309408        1.1777364087
 C         -3.5211158693        3.6982968305        0.2588261890
 H         -3.0898289393        4.6086737105        0.6837457690
 H         -2.7367826194        2.9387425905        0.2596094392
 C         -3.9319575689        4.0026967705       -1.1798729212
 H         -3.0498452187        4.3949128303       -1.6922460410
 H         -4.6905711588        4.7885396705       -1.1762752215
 C         -4.4629871888        2.8179479604       -1.9897351412
 H         -4.4762038885        3.1229328603       -3.0401554512
 H         -5.4913573389        2.5894705106       -1.7228916114
 C         -3.6062176190        1.5578998003       -1.9149575208
 H         -3.9281061789        0.8719063103       -2.7078845709
 H         -2.5689485689        1.8128954302       -2.1604354606
 H         -4.2515543199        3.1727749508        2.1906686788
 H         -5.4411686695        4.0067663609        1.1855305784
 H         -5.8348499200        1.5247691810        1.6813067886
 H         -5.9932334995        2.0061386608       -0.0034386515
 O         -4.0915079001        0.0130937108        1.5363072392
 C         -3.1974813802       -1.0381816194        1.5085578095
 O         -3.1446536806       -1.6975906393        2.5672658696
 O         -1.8491792693       -0.4805610799       -1.7990159802
 C         -1.4870695401       -2.4186127397        0.3581030901
 C         -0.1313986099       -1.9790701499       -0.1403038596
 C          0.5473356203       -2.5953699301       -1.1824232393
 C          1.8006429604       -2.1479692403       -1.5634913590
 C          2.4019803404       -1.0825804803       -0.9203165290
 C          1.7329240402       -0.4585413101        0.1247858508
 C          0.4831947700       -0.9152080399        0.5105988305
 H         -0.0372630201       -0.4297486798        1.3289864903
 N          2.3361628102        0.6358321299        0.7764763108
 S          3.8434624599        0.3708284297        1.4733416013
 O          3.9939760697       -1.0036179102        1.8942276814
 O          3.9654045098        1.3757687198        2.5072728212
 C          4.9947050703        0.7377953995        0.1662494515
 C          4.9607482206        1.9982748494       -0.3973746486
 C          5.8536781309        2.3005604092       -1.4130067584
 C          6.7616767509        1.3441137490       -1.8428659881
 C          6.7853385106        0.0844972191       -1.2638984479
 C          5.8941063303       -0.2249256107       -0.2481748881
 H          5.8707200301       -1.1921715706        0.2277624020
 H          7.4918665406       -0.6574492510       -1.5995972677
 H          7.4549115112        1.5821585289       -2.6340956979
 H          5.8383492812        3.2788298192       -1.8658726785
 H          4.2420117806        2.7126076195       -0.0317470089
 H          1.7270341200        1.0908359500        1.4414643106
 H          3.3735539305       -0.7264690805       -1.2215010188
 H          2.3139193706       -2.6333219705       -2.3795173688
 H          0.0879323003       -3.4140414401       -1.7110035093
 H         -1.3755806504       -2.6787278296        1.4247745502
 C         -2.0101970301       -3.6682087097       -0.3352773099
 C         -3.4817784901       -3.9264830295       -0.4568884302
 C         -2.6711656297       -3.6219973298       -1.6788775701
 H         -2.4746589596       -4.4251868399       -2.3739815699
 H         -2.7819772995       -2.6564953098       -2.1455770902
 H         -3.8375286303       -4.9353180395       -0.3100609902
 H         -4.1563772601       -3.1686285694       -0.0849943505
 H         -1.3902807403       -4.5345225798       -0.1252239496
