  62
        -98.94445437
 C          1.9676110813       -1.1454436478        0.1538920758
 C          2.4091355447        0.0165413275        0.8314532046
 C          3.8582771333        0.2550372468        0.8032098439
 C          4.6708595779       -0.6203451666        0.1841832529
 C          6.1697919520       -0.5253934516        0.0924799862
 C          6.6700868082        0.3706578103       -1.0488948791
 C          6.4732805802        1.8716744608       -0.8324725660
 H          6.8835658614        2.1548867237        0.1373027509
 H          7.0601108339        2.3851455100       -1.5966994860
 C          5.0148123269        2.3403027823       -0.9330716871
 H          4.4185763543        1.5737856238       -1.4333620597
 H          4.9624957295        3.2394806214       -1.5510047846
 C          4.3620405034        2.6748359947        0.4082696012
 H          4.8648712486        3.5345486373        0.8569473614
 H          3.3205795941        2.9516007887        0.2238385428
 C          4.3714914940        1.5210928396        1.4195320581
 H          5.3762935937        1.3744457612        1.8153457303
 H          3.7039159879        1.7830611064        2.2442383463
 H          6.1736683939        0.0680358474       -1.9737119769
 H          7.7391051397        0.1797486058       -1.1676734423
 H          6.5727800331       -0.1683040591        1.0405786974
 H          6.5352681235       -1.5398048451       -0.0810142215
 O          4.2069686566       -1.7389013257       -0.4344815858
 C          2.8504762351       -2.0160383044       -0.4852739339
 O          2.5604172318       -3.0515048570       -1.1182691953
 H         -1.5767788796        0.0952947845        1.1029871461
 C         -1.2775484809        0.3560372120        0.1025344983
 C         -0.2599280694       -0.3325522753       -0.5367432036
 C          0.1087877856        0.0608039589       -1.8217623656
 C         -0.5136863003        1.1260669028       -2.4410269233
 C         -1.5254758065        1.8166633473       -1.7960699911
 C         -1.9043519220        1.4310508717       -0.5163586449
 N         -2.9095490605        2.1339551399        0.1648463973
 S         -4.0841733723        1.3445819434        1.0503608614
 O         -5.0896827723        2.3555449014        1.2921088307
 O         -3.5105258771        0.7230714098        2.2157328648
 C         -4.7283987931        0.1085250852       -0.0619954369
 C         -5.6676584137        0.4969495559       -0.9978162362
 C         -6.1379469469       -0.4383630291       -1.9047760636
 C         -5.6568731882       -1.7385603132       -1.8664677229
 C         -4.7142645482       -2.1122051912       -0.9213386680
 C         -4.2424920157       -1.1818402101       -0.0084808658
 H         -3.5142434308       -1.4377377662        0.7428969688
 H         -4.3430533584       -3.1242426639       -0.8903868100
 H         -6.0205892521       -2.4663119014       -2.5746091698
 H         -6.8749737723       -0.1523684741       -2.6377707790
 H         -6.0239392244        1.5142531827       -0.9855603027
 H         -3.3059861265        2.9041988288       -0.3530419342
 H         -2.0069051140        2.6565311647       -2.2735680189
 H         -0.2114231569        1.4228715103       -3.4340696731
 H          0.9030769739       -0.4776297091       -2.3215362989
 C          0.4862567809       -1.4791894747        0.1002432986
 H          0.3978980479       -2.3550802042       -0.5586324453
 C         -0.0160504968       -1.8553920989        1.4776392350
 C         -1.1764920481       -2.7914678140        1.6240161057
 C          0.2066711814       -3.2516607950        1.9726018630
 H          0.4584709145       -3.3959206368        3.0125683142
 H          0.7009302155       -3.9413516597        1.3036427098
 H         -1.6187739927       -3.1810011019        0.7192634963
 H         -1.8784748247       -2.6196773539        2.4269519552
 H          0.0868222969       -1.0525370100        2.1989009097
 O          1.6414891461        0.8132505635        1.4311654045
