  62
        -98.94321233
 C          2.3861412637        0.4335767573        0.1169634451
 C          3.4599389548        0.4024411189        1.0383698206
 C          4.4805321944       -0.6264429834        0.8002767629
 C          4.3284709530       -1.4760461549       -0.2323172271
 C          5.3167542667       -2.5363146495       -0.6214052401
 C          6.3295362742       -2.0017739687       -1.6437947715
 C          6.9627216402       -0.6683268634       -1.2463414849
 H          7.6811930300       -0.4041516642       -2.0253550394
 H          6.1919373560        0.1058285867       -1.2447264324
 C          7.6684998619       -0.6822622650        0.1168118674
 H          7.8684282308       -1.7105446873        0.4201461967
 H          8.6332813845       -0.1804726996        0.0169347180
 C          6.9065600836        0.0355630594        1.2323995722
 H          6.6225874106        1.0363018882        0.8969515507
 H          7.5824940704        0.1557125816        2.0832562380
 C          5.6481271984       -0.6759869718        1.7453190407
 H          5.8897186692       -1.7082312575        2.0066985112
 H          5.3210861669       -0.1592764268        2.6524863398
 H          7.1109892071       -2.7515231464       -1.7801532139
 H          5.8177196740       -1.8662659570       -2.5993651530
 H          5.8344401023       -2.8881611036        0.2687744692
 H          4.7697941009       -3.3691659751       -1.0663116062
 O          3.2680921223       -1.4335385871       -1.0786516522
 C          2.2762615880       -0.4744620170       -0.9360126480
 O          1.3737764443       -0.5373400423       -1.7917287586
 H         -1.0593232297        1.7903692460       -1.1146572620
 C         -1.1359714904        1.0854411091       -0.3015188439
 C         -0.0324620319        0.8210693414        0.4926988045
 C         -0.1702900544       -0.0892021745        1.5380869996
 C         -1.3737037283       -0.7263217373        1.7674481740
 C         -2.4690836793       -0.4721792204        0.9597150282
 C         -2.3470934668        0.4406794151       -0.0774277966
 N         -3.4509608337        0.6982716953       -0.9058855358
 S         -4.9397665838        1.0161746126       -0.2031249106
 O         -5.6630474644        1.7906289862       -1.1879758317
 O         -4.7905353307        1.6166496670        1.1021831969
 C         -5.7003488373       -0.5868159480       -0.0557536840
 C         -6.1472146001       -1.0268993307        1.1746623781
 C         -6.7454702696       -2.2742303086        1.2636709675
 C         -6.8864943120       -3.0545264106        0.1264038416
 C         -6.4350555286       -2.5966414681       -1.1025720552
 C         -5.8369802829       -1.3504308182       -1.1983547229
 H         -5.4764559586       -0.9576880463       -2.1344586428
 H         -6.5466527300       -3.2062992682       -1.9847786389
 H         -7.3513384845       -4.0251887165        0.1978025402
 H         -7.0977543218       -2.6316685889        2.2179394016
 H         -6.0124962813       -0.3877592984        2.0328643992
 H         -3.2573833799        1.3406365353       -1.6602163887
 H         -3.4094285087       -0.9706672212        1.1288319487
 H         -1.4617689181       -1.4313543894        2.5802095470
 H          0.6856939750       -0.2910111563        2.1677749570
 C          1.3056145074        1.4863101831        0.2869419510
 H          1.5632888195        2.0218472118        1.2127152547
 C          1.3387809258        2.4671601046       -0.8658572058
 C          0.8117156901        3.8587024632       -0.6857261064
 C          2.2871808240        3.6252621211       -0.8046288430
 H          2.7871832095        3.9312576207       -1.7113946756
 H          2.8948402897        3.7227224966        0.0830953766
 H          0.2999812452        4.3294937093       -1.5119087114
 H          0.4150499668        4.1209147089        0.2836083889
 H          1.2011131408        1.9864237219       -1.8281930372
 O          3.5574751285        1.1948739787        2.0140668351
