  62
        -98.94352336
 C          0.9274266611        1.5504239880       -0.6738758085
 C          0.3101367867        1.9984176516        0.5155084804
 C         -1.1430929319        2.2589840102        0.4560999170
 C         -1.7922136256        2.0583706050       -0.7054394912
 C         -3.2541031977        2.2560064487       -1.0180205950
 C         -4.1606705353        1.1576313227       -0.4451356569
 C         -3.8853905571        0.7937826424        1.0111279736
 H         -4.5467304420       -0.0363048455        1.2766776269
 H         -2.8627260217        0.4249032905        1.1171287832
 C         -4.1255071507        1.9212546393        2.0130071972
 H         -5.1491747015        2.2874132748        1.9045697207
 H         -4.0315920003        1.4857676829        3.0111923678
 C         -3.1639127028        3.1102774462        1.9273078025
 H         -3.2522459534        3.6675086058        2.8643839942
 H         -3.4466899801        3.7963185125        1.1327839847
 C         -1.6965305421        2.7209920384        1.7810496243
 H         -1.0726531004        3.5736474871        2.0749099716
 H         -1.4577113668        1.9274603110        2.4998001338
 H         -4.0337318933        0.2541277582       -1.0471161229
 H         -5.1977655614        1.4837988171       -0.5471187807
 H         -3.3410696616        2.2445556413       -2.1070775149
 H         -3.5783168108        3.2334550221       -0.6723680061
 O         -1.1528804302        1.6115009254       -1.8269396107
 C          0.1990151113        1.3269434312       -1.8393726699
 O          0.6280026441        0.8925525507       -2.9277509209
 O          0.9414503062        2.1882752306        1.5888079934
 C          2.4087650127        1.2176993610       -0.6829293755
 C          2.6847976640        0.1565464247        0.3548325360
 C          3.7643557494        0.1874051312        1.2274480981
 C          3.9227231961       -0.8092223753        2.1755441127
 C          3.0068880946       -1.8395024163        2.2854924145
 C          1.9307954981       -1.8863616429        1.4062474880
 C          1.7987690298       -0.9099311323        0.4343841578
 H          0.9654448677       -0.9519732023       -0.2514897853
 N          0.9768967027       -2.9136233940        1.4680699027
 S         -0.6262858248       -2.5561247500        1.1376709119
 O         -0.9885257023       -1.2287156322        1.5737669333
 O         -1.3644812784       -3.6446496988        1.7456936469
 C         -0.7527088152       -2.6945609355       -0.6315498002
 C         -1.4283178381       -1.7189520573       -1.3357582525
 C         -1.5284062836       -1.8283845616       -2.7129246943
 C         -0.9552173265       -2.9128368287       -3.3582441546
 C         -0.2881355465       -3.8910942295       -2.6360425119
 C         -0.1841451023       -3.7853941024       -1.2584248284
 H          0.3307011165       -4.5219684255       -0.6645247494
 H          0.1560966172       -4.7317539308       -3.1443722755
 H         -1.0266829112       -2.9908586491       -4.4315912407
 H         -2.0338144130       -1.0576408369       -3.2728210083
 H         -1.8423333088       -0.8821239597       -0.7950771643
 H          1.0715042670       -3.5406046405        2.2538219053
 H          3.1167380632       -2.5980095115        3.0455884686
 H          4.7622860436       -0.7719364053        2.8531811251
 H          4.4735904541        0.9972140146        1.1757780079
 H          2.6187558680        0.7924558713       -1.6756829651
 C          3.2382867205        2.4715041343       -0.5018725008
 C          4.6039785501        2.5688720212       -1.1109606128
 C          3.4691146366        3.3609987175       -1.6851868474
 H          3.4561359516        4.4303246861       -1.5369073663
 H          3.0482515678        3.0461920706       -2.6291652112
 H          5.3735051198        3.0986616250       -0.5699525254
 H          4.9626538256        1.7198991330       -1.6729389001
 H          3.0664300371        2.9471919005        0.4569041197
