  62
        -98.93298691
 C          2.1461461771        1.4336283050       -0.0319187516
 C          2.8542295469        0.7346003476        0.9771347821
 C          3.7317105660       -0.3692475157        0.5489473314
 C          3.7880866995       -0.6829601540       -0.7573854507
 C          4.6016432603       -1.7526408663       -1.4408774077
 C          4.6322936119       -3.1313122436       -0.7632008720
 C          5.9869570774       -3.4732251464       -0.1401883970
 H          6.0765020470       -4.5598653522       -0.0756953009
 H          6.7752291664       -3.1203083994       -0.8083668940
 C          6.2196705879       -2.9069408654        1.2593351279
 H          5.5921805537       -3.4433455256        1.9744017278
 H          7.2601795400       -3.1052686920        1.5267819102
 C          5.9512595532       -1.4083881152        1.4119476209
 H          6.3202638716       -0.8636004171        0.5437638040
 H          6.5183317027       -1.0544801083        2.2754243975
 C          4.4730513026       -1.0690626333        1.6550666975
 H          3.9211333958       -1.9732783351        1.9287004441
 H          4.3863571455       -0.3951492386        2.5131267431
 H          3.8424554252       -3.1940122755       -0.0157136255
 H          4.4128208950       -3.8811378074       -1.5252296414
 H          4.1702837585       -1.8403899689       -2.4407545551
 H          5.6211703387       -1.3816659662       -1.5727483369
 O          3.0746421769        0.0024809812       -1.6945615652
 C          2.2398297048        1.0617961616       -1.3719475007
 O          1.6624880865        1.5569124650       -2.3592058873
 H         -0.3449387868        1.2868033263       -1.3127167552
 C         -0.8253171731        1.4214882319       -0.3540097222
 C         -0.1451630221        2.0856275404        0.6586073985
 C         -0.7724835563        2.2409288319        1.8883900292
 C         -2.0479021626        1.7437811407        2.0959396892
 C         -2.7209539030        1.0828305298        1.0840527067
 C         -2.1002146041        0.9190933988       -0.1475552356
 N         -2.7754685733        0.2322246547       -1.1808979622
 S         -3.0758546301       -1.3966572415       -0.8723545201
 O         -2.0790523560       -1.9559506942        0.0137748697
 O         -3.2051069198       -2.0199875211       -2.1714768743
 C         -4.6663325053       -1.3831957962       -0.0724109755
 C         -4.7934152391       -1.8632427510        1.2162548769
 C         -6.0419691037       -1.8417194336        1.8185222708
 C         -7.1343400163       -1.3432957857        1.1250688057
 C         -6.9899226071       -0.8667723389       -0.1696392294
 C         -5.7450854641       -0.8865735665       -0.7780519400
 H         -5.5886211694       -0.5317705929       -1.7830296335
 H         -7.8417774618       -0.4803152333       -0.7055057572
 H         -8.1042352902       -1.3266140213        1.5965531265
 H         -6.1559248965       -2.2119349819        2.8246958483
 H         -3.9138079595       -2.2353371070        1.7168725218
 H         -2.3016553815        0.3155135721       -2.0706040227
 H         -3.7131870425        0.6916870261        1.2394831230
 H         -2.5218774454        1.8696981581        3.0572331861
 H         -0.2451390287        2.7372249517        2.6897620219
 C          1.2598357532        2.5794574903        0.4273826689
 H          1.6716026836        2.8721296608        1.4059669424
 C          1.3346076384        3.7981199443       -0.4823809676
 C          0.1814438034        4.3094496608       -1.2883688515
 C          0.6427608151        5.0681632375       -0.0828274408
 H          1.1582519291        6.0059945211       -0.2227086250
 H          0.0164544944        5.0324208783        0.7958333930
 H         -0.7592582901        3.7850985879       -1.2305663319
 H          0.3973446696        4.7048642638       -2.2692864572
 H          2.3146385834        3.9012703071       -0.9371230581
 O          2.7659666182        1.0335972752        2.1985558938
