  62
        -98.94597277
 C          1.0636715264        1.2934315779       -0.0890556551
 C          1.7374895441        0.6011741003        0.9512586472
 C          2.5534730797       -0.5497491288        0.5514459720
 C          2.5919053594       -0.9177249609       -0.7418205885
 C          3.3226709059       -2.1071258740       -1.3036232447
 C          4.8035727378       -1.8455416777       -1.6099439507
 C          5.7064802048       -1.7198409355       -0.3822238374
 H          5.5593162999       -2.5851110710        0.2648177144
 H          6.7378514894       -1.7512636295       -0.7389002157
 C          5.5005622557       -0.4293103673        0.4230873528
 H          4.9600483719        0.2976915845       -0.1876027942
 H          6.4717865892        0.0113287650        0.6589677785
 C          4.7559643506       -0.6182537064        1.7445733395
 H          4.6384686141        0.3619531934        2.2133575798
 H          5.3519868543       -1.2424600458        2.4138272498
 C          3.3624658035       -1.2460047814        1.6048431706
 H          3.4505990266       -2.3087332110        1.3782240865
 H          2.8424003125       -1.1276069582        2.5588101467
 H          5.1629989523       -2.6796577361       -2.2170793755
 H          4.8797881852       -0.9385993945       -2.2144233696
 H          3.2351234627       -2.9486506472       -0.6153972766
 H          2.8171400398       -2.3683336270       -2.2363951494
 O          1.9267835439       -0.2374507606       -1.7112485182
 C          1.1698127688        0.8948482442       -1.4231428661
 O          0.6695126027        1.4214310785       -2.4355964112
 O          1.6583299788        0.9329054656        2.1638153435
 C          0.2125749352        2.4736437007        0.3401018918
 C         -1.2247938868        2.0705135881        0.5796502690
 C         -1.9100149030        2.5428728775        1.6938067992
 C         -3.2312762494        2.1967443442        1.9091862614
 C         -3.8871665086        1.3531746592        1.0308684730
 C         -3.2101030715        0.8697868123       -0.0822756156
 C         -1.8920755519        1.2406693900       -0.3093609693
 H         -1.3924481297        0.8730813057       -1.1919834031
 N         -3.8402191513       -0.0095103264       -0.9821265907
 S         -3.0333879181       -1.4208649360       -1.3855197903
 O         -1.9948439213       -1.1609684653       -2.3472994339
 O         -4.0827867580       -2.3223864810       -1.8131762150
 C         -2.3394330155       -1.9840975082        0.1575533566
 C         -0.9948916071       -1.8089874924        0.4094989958
 C         -0.4880078360       -2.1911467421        1.6414144674
 C         -1.3323920079       -2.7371769016        2.5952269880
 C         -2.6812656940       -2.9135563592        2.3249701710
 C         -3.1931160409       -2.5304478447        1.0965303646
 H         -4.2326247128       -2.6603696332        0.8427280491
 H         -3.3327011371       -3.3436886619        3.0683729728
 H         -0.9324430851       -3.0272197063        3.5538548450
 H          0.5597723678       -2.0442990297        1.8491541675
 H         -0.3674108812       -1.3781336096       -0.3551894839
 H         -4.8031333744       -0.2116248188       -0.7515224383
 H         -4.9141574110        1.0691797840        1.2019658484
 H         -3.7517823424        2.5744958740        2.7755740661
 H         -1.3958785117        3.1785562397        2.3986788847
 H          0.6289677166        2.7936489415        1.3056888197
 C          0.2558054101        3.6538803472       -0.6116009737
 C          0.0081130468        5.0339955000       -0.0838334524
 C          1.3851780482        4.6338488411       -0.5193907565
 H          1.7833276723        5.0453451640       -1.4346135257
 H          2.1318158570        4.4640455004        0.2428470823
 H         -0.5453615678        5.7259832328       -0.6996101120
 H         -0.1734650177        5.1442461235        0.9741722305
 H         -0.1172296028        3.4174329131       -1.5999414686
