  62
        -98.94967465
 C         -1.5026120416       -1.0337647891        0.0483575093
 C         -2.5264615314       -0.6173350689        0.9297197994
 C         -3.0602196307        0.7283861715        0.6974985800
 C         -2.5363811803        1.4955681116       -0.2762305997
 C         -2.9519434495        2.9022560820       -0.6122706292
 C         -4.1706446594        2.9897807730       -1.5414948992
 C         -5.5088228896        2.6313452935       -0.8939248793
 H         -5.6346474593        3.2122409032        0.0202888609
 H         -6.2931095795        2.9405661442       -1.5876489092
 C         -5.6832710905        1.1377945834       -0.5854159699
 H         -6.6720828806        0.8109395341       -0.9146348200
 H         -4.9491473308        0.5607339033       -1.1522410001
 C         -5.5574348807        0.7774153728        0.8948342400
 H         -6.3662237404        1.2487996130        1.4574814201
 H         -5.6642868212       -0.3057434572        0.9942003595
 C         -4.2207076504        1.1805983418        1.5318058401
 H         -4.1407997007        0.6897771814        2.5051643399
 H         -4.1838490699        2.2595285717        1.6827775706
 H         -4.2303181589        4.0187153832       -1.9036197587
 H         -3.9979299098        2.3425596533       -2.4043700594
 H         -3.1505344992        3.4535743317        0.3074439310
 H         -2.0981211992        3.3647550517       -1.1125772390
 O         -1.5290980705        1.0710439514       -1.0825433699
 C         -0.9933021812       -0.1983712689       -0.9448060704
 O         -0.0859677813       -0.4648667091       -1.7574601405
 O         -2.9689382718       -1.3351788990        1.8685516392
 C         -0.9014848224       -2.4168971294        0.2108993587
 C          0.5946709577       -2.3291647403        0.3841958588
 C          1.4780985672       -3.2433645806       -0.1773824116
 C          2.8433565173       -3.1077760314        0.0067238885
 C          3.3575479978       -2.0492747819        0.7328344689
 C          2.4815524883       -1.1349807317        1.3053843793
 C          1.1148045282       -1.2952361209        1.1523576792
 H          0.4509866286       -0.5733188707        1.6059401795
 N          2.9499361689       -0.0166871422        2.0306164497
 S          2.6614983797        1.4781997782        1.3237978903
 O          3.3186540702        2.4360073575        2.1883138307
 O          1.2477101098        1.6641897490        1.1248700204
 C          3.5355677097        1.3871017883       -0.2288776597
 C          2.9487809493        0.7529164191       -1.3053869900
 C          3.6846149693        0.6101070791       -2.4727094500
 C          4.9810202295        1.0951755585       -2.5430983498
 C          5.5543974899        1.7305800977       -1.4515151896
 C          4.8286153399        1.8733103077       -0.2806456995
 H          5.2299728202        2.3617174471        0.5927995807
 H          6.5619339401        2.1100630472       -1.5082329994
 H          5.5461090195        0.9777321985       -3.4543096999
 H          3.2304519990        0.1153175397       -3.3162281002
 H          1.9359239691        0.3861614796       -1.2351035001
 H          3.9304780789       -0.0765259129        2.2721961597
 H          4.4232233479       -1.9266762426        0.8552921990
 H          3.5159278769       -3.8255886216       -0.4371253918
 H          1.0961787367       -4.0616341801       -0.7657278219
 H         -1.3350499526       -2.8181724296        1.1398280686
 C         -1.3185825528       -3.3054852688       -0.9442931816
 C         -1.5266623836       -4.7757081987       -0.7393550622
 C         -2.7047524531       -3.8745735880       -0.9508410118
 H         -3.2372412032       -3.9273983374       -1.8886065019
 H         -3.3351821930       -3.6454951880       -0.1039378118
 H         -1.2525379640       -5.4510398786       -1.5358223525
 H         -1.3653516639       -5.1707943692        0.2521962277
 H         -0.9107447427       -2.9703045586       -1.8916408215
