  62
        -98.93909070
 C         -2.5782192203       -0.6395575364        0.2344172577
 C         -2.9553445062        0.4730730069        1.0277876249
 C         -3.0334773465        1.7684747617        0.3416611178
 C         -2.7198705070        1.8384229141       -0.9645077680
 C         -2.7119752275        3.0988999860       -1.7789398063
 C         -1.3248965053        3.7554770560       -1.7761337058
 C         -0.7168350160        3.9165720292       -0.3827397716
 H         -0.4828315393        2.9263869731        0.0171939016
 H          0.2364490556        4.4353068115       -0.5065949679
 C         -1.5949294670        4.6883569704        0.6125531918
 H         -2.3432047278        5.2684363237        0.0712571474
 H         -0.9649334678        5.3965006345        1.1548949798
 C         -2.2894912927        3.8182552373        1.6618871603
 H         -1.5557138453        3.1574486020        2.1308019462
 H         -2.6839935067        4.4757052561        2.4411681816
 C         -3.4552549912        2.9597837473        1.1550458427
 H         -3.9764519027        2.5575517191        2.0287195150
 H         -4.1543461831        3.5821858873        0.5930833583
 H         -1.4054716692        4.7325674789       -2.2566217599
 H         -0.6461044438        3.1369958216       -2.3687190238
 H         -2.9807679477        2.8452970967       -2.8059332829
 H         -3.4530793291        3.7881770957       -1.3783897441
 O         -2.3315233287        0.7587518424       -1.6879222602
 C         -2.2164116128       -0.4976436220       -1.1073174545
 O         -1.8015482158       -1.3743568351       -1.8878759346
 H         -0.1393959536       -0.7864560211        1.4458392605
 C          0.0301211503       -1.7398633705        0.9573669608
 C         -1.0614029710       -2.5330900766        0.6244502287
 C         -0.8259903237       -3.7425803189       -0.0139885577
 C          0.4653799968       -4.1284454046       -0.3325471833
 C          1.5449732281       -3.3203231336       -0.0260134667
 C          1.3188170372       -2.1182549501        0.6278374980
 N          2.4207488859       -1.2587069426        0.9026518991
 S          2.7434111443       -0.2409115007       -0.4151109149
 O          1.8347627531        0.8875470157       -0.3986406973
 O          2.7699724263       -1.0401833434       -1.6124822639
 C          4.3953300924        0.3015391988       -0.0184107184
 C          5.4243986483       -0.6093316649       -0.1604728833
 C          6.7117949467       -0.2241055886        0.1761366651
 C          6.9471490868        1.0588950875        0.6483952589
 C          5.9042341522        1.9619794026        0.7849309465
 C          4.6132520632        1.5815944285        0.4511960520
 H          3.7724176248        2.2512977783        0.5369728326
 H          6.0897532905        2.9592899204        1.1501948116
 H          7.9500497059        1.3572510200        0.9101675679
 H          7.5254161952       -0.9233807932        0.0701132883
 H          5.1929395439       -1.5913165142       -0.5380544147
 H          2.2150493681       -0.6511911286        1.6871285931
 H          2.5502766855       -3.5930013824       -0.3015374464
 H          0.6296978219       -5.0647282116       -0.8440193366
 H         -1.6576152577       -4.3671889706       -0.2966634737
 C         -2.4305650582       -1.9824646040        0.9318716613
 H         -2.4630166114       -1.7318284043        2.0059909547
 C         -3.5613118991       -2.9680353133        0.6881169220
 C         -4.9457100533       -2.4863596307        0.3751422363
 C         -4.1507251465       -3.2103517712       -0.6676880050
 H         -4.4427761385       -4.2186351964       -0.9229797236
 H         -3.7491110180       -2.6493892331       -1.4963470067
 H         -5.0882934506       -1.4215539109        0.2593436602
 H         -5.7822043944       -2.9934270066        0.8319545661
 H         -3.4908823391       -3.8286824903        1.3464247846
 O         -3.2080505904        0.3864526235        2.2602618919
