  62
        -98.94036533
 C         -1.4947791473       -1.4650133528       -0.0109904862
 C         -2.5038392245       -0.9718509831        0.8452411567
 C         -3.2643446749        0.1953692492        0.3625354681
 C         -2.9449067914        0.7273632267       -0.8320028297
 C         -3.5887942608        1.9255842314       -1.4745374966
 C         -3.0986114482        3.2691589734       -0.8885789550
 C         -2.6404616884        3.2133671209        0.5693582067
 H         -1.9613733381        2.3680739158        0.7002456419
 H         -2.0674594921        4.1201848102        0.7812777672
 C         -3.7738641768        3.1291207901        1.5927698844
 H         -3.3353543201        2.9202713938        2.5718977546
 H         -4.2638887311        4.1045174375        1.6507275296
 C         -4.8520695664        2.0885633323        1.3001214862
 H         -5.5972009295        2.1542291931        2.0986725978
 H         -5.3633449683        2.3419402254        0.3749283177
 C         -4.3792249300        0.6350986807        1.2776047087
 H         -5.2447396447       -0.0022458039        1.0567911653
 H         -4.0503524321        0.3530104173        2.2838726011
 H         -2.2512130677        3.6116628541       -1.4855521302
 H         -3.8918618431        4.0107378284       -0.9899381886
 H         -3.3385509137        1.8917458560       -2.5364010826
 H         -4.6685701463        1.8295906129       -1.3861395991
 O         -1.9347157217        0.2469271688       -1.6063925804
 C         -1.1903030132       -0.8588681413       -1.2304636982
 O         -0.3122720036       -1.1939892683       -2.0438681087
 O         -2.7567766014       -1.4794098733        1.9731180749
 C         -0.6901336373       -2.6794240404        0.4157003251
 C          0.7735914719       -2.3230103786        0.4885509197
 C          1.7809021616       -3.0789578608       -0.0950461304
 C          3.1020750210       -2.6720727740       -0.0120078607
 C          3.4479304330       -1.5115852360        0.6546850056
 C          2.4481798071       -0.7540893092        1.2515961291
 C          1.1278380629       -1.1639319727        1.1690222655
 H          0.3508768381       -0.5678565389        1.6325706841
 N          2.7879270855        0.4416991712        1.9205908401
 S          3.5449524548        1.6024790464        0.9739615229
 O          4.9190856490        1.2192399410        0.7714576927
 O          3.3301204555        2.8560727330        1.6616199632
 C          2.6614697513        1.5712583490       -0.5726806793
 C          3.1842206520        0.8811861099       -1.6469107925
 C          2.4459795945        0.8056609246       -2.8165172577
 C          1.2047747194        1.4162237171       -2.8910755630
 C          0.6960964439        2.1087976724       -1.8040837482
 C          1.4244373547        2.1814789038       -0.6291979453
 H          1.0579974234        2.7109074692        0.2368838938
 H         -0.2744120929        2.5739602222       -1.8640362930
 H          0.6236397253        1.3440733593       -3.7963490111
 H          2.8337525631        0.2612168860       -3.6620940907
 H          4.1538060667        0.4211114701       -1.5492273847
 H          2.0023252824        0.8606730285        2.3983816469
 H          4.4693272468       -1.1725279465        0.7168086415
 H          3.8733381896       -3.2668185966       -0.4770961827
 H          1.5323129564       -3.9833863847       -0.6250498092
 H         -1.0363924136       -2.9197281787        1.4320714083
 C         -0.9873707982       -3.8553329641       -0.4904218568
 C         -0.8659404457       -5.2565301222        0.0272889110
 C         -2.2191632401       -4.6698073799       -0.2368384366
 H         -2.7833622422       -5.0298666641       -1.0840356789
 H         -2.8322411332       -4.3919433552        0.6082323763
 H         -0.5030280890       -6.0241020496       -0.6394116143
 H         -0.5618816693       -5.3853211515        1.0550874193
 H         -0.7188170676       -3.6632644378       -1.5230175219
