  62
        -98.94413896
 C          1.7193741550        1.4475507919        0.2091126242
 C          2.0193392941        0.6905384100       -0.9493983330
 C          2.9021030170       -0.4710238365       -0.7533707787
 C          3.3231271137       -0.7868120008        0.4841595250
 C          4.1849061002       -1.9665590171        0.8268949172
 C          3.3476341063       -3.2126707523        1.1476730293
 C          2.2779885094       -3.5310201345        0.1030918683
 H          1.7793372854       -4.4506930351        0.4162598751
 H          1.5226475163       -2.7433247430        0.1079788741
 C          2.8107736189       -3.6982400200       -1.3260411479
 H          2.3438243223       -4.5779858305       -1.7739195890
 H          3.8864742010       -3.8769509180       -1.3060483439
 C          2.5103362210       -2.5162700669       -2.2495190672
 H          2.7258133147       -2.8238400824       -3.2765098668
 H          1.4441735050       -2.2772854006       -2.2016590192
 C          3.3134197713       -1.2371486987       -1.9800962148
 H          4.3778313991       -1.4783083438       -1.9385990563
 H          3.1490851479       -0.5610208133       -2.8244254623
 H          2.8528375173       -3.0622748888        2.1098753684
 H          4.0245794302       -4.0631378994        1.2458125260
 H          4.8528199581       -2.1725952983       -0.0075923445
 H          4.7831538095       -1.7085046214        1.7024556289
 O          2.9742400459       -0.0694117839        1.5815205794
 C          2.1913218032        1.0677175160        1.4712527845
 O          1.9849361796        1.6487541566        2.5531897446
 H         -0.4894879299        1.2674288895       -1.6292840343
 C         -1.1268587558        1.5708868257       -0.8118242297
 C         -0.5997470025        2.3484139021        0.2087541740
 C         -1.4330873923        2.7223049038        1.2560293917
 C         -2.7591294529        2.3240126658        1.2793205468
 C         -3.2719325561        1.5207304358        0.2762213528
 C         -2.4414762339        1.1352395382       -0.7678338649
 N         -2.9199205797        0.2263072090       -1.7348761463
 S         -3.4676042468       -1.2248785748       -1.0883531291
 O         -3.0689661367       -2.2521488846       -2.0253045952
 O         -4.8847653027       -1.1236223664       -0.8414588049
 C         -2.6155687569       -1.4095032443        0.4733546896
 C         -3.3573016283       -1.5220142482        1.6315691970
 C         -2.6990126302       -1.6014290660        2.8481303866
 C         -1.3149109925       -1.5485785852        2.8868519919
 C         -0.5829826079       -1.4381104861        1.7149007614
 C         -1.2345720731       -1.3765456989        0.4942440897
 H         -0.6827282382       -1.2915845308       -0.4297366702
 H          0.4937345340       -1.3795502005        1.7527368556
 H         -0.7966804818       -1.5866231736        3.8319415387
 H         -3.2651060850       -1.6910160363        3.7611037502
 H         -4.4323358001       -1.5363095488        1.5556295154
 H         -2.2415690195        0.0433499303       -2.4619490838
 H         -4.2911606581        1.1688863033        0.2937483636
 H         -3.3952197474        2.6255238862        2.0970570625
 H         -1.0295278137        3.3108313369        2.0665406107
 C          0.8658864860        2.7097175504        0.1979597307
 H          1.0904576276        3.2274213697        1.1396307544
 C          1.1911633997        3.6438140893       -0.9511441278
 C          0.8330605377        5.0930832655       -0.8297998465
 C          2.2697029360        4.6687415499       -0.7800186995
 H          2.9060412413        4.8920402156       -1.6231775847
 H          2.7795263771        4.7041998564        0.1719561940
 H          0.4795238673        5.6109681861       -1.7081039234
 H          0.3697149333        5.4192441929        0.0889855077
 H          1.0966586082        3.1816708006       -1.9247169875
 O          1.5888237514        0.9465520551       -2.1073769013
