  62
        -98.93892976
 C         -2.0549304294       -1.0518770889       -0.2232991998
 C         -2.3430983593       -0.2521403690        0.9125425604
 C         -2.5034252296        1.1872287110        0.6842343705
 C         -2.3206542499        1.6732229511       -0.5563690195
 C         -2.4591547602        3.1172451111       -0.9423944593
 C         -3.8912059403        3.4436241010       -1.3884697890
 C         -4.9653460401        2.9482911307       -0.4202087888
 H         -4.9555098299        1.8561010907       -0.4090257689
 H         -5.9327145202        3.2585114206       -0.8207578785
 C         -4.8137869598        3.4699922806        1.0153497812
 H         -5.7920149098        3.7955630305        1.3749368115
 H         -4.1573594999        4.3406382707        1.0253321812
 C         -4.2940762594        2.4340452206        2.0138718510
 H         -4.8911325993        1.5219012005        1.9395427211
 H         -4.4310602793        2.8344287405        3.0217715411
 C         -2.8148802494        2.0526704908        1.8726730407
 H         -2.5355877991        1.4618727608        2.7501445706
 H         -2.1986592095        2.9544597009        1.8592949006
 H         -4.0638874105        2.9771550710       -2.3610498690
 H         -3.9767367605        4.5250087410       -1.5094356489
 H         -2.1781023801        3.7385293611       -0.0939226093
 H         -1.7720705604        3.3157839213       -1.7671472095
 O         -2.0333557800        0.8849211912       -1.6208498296
 C         -1.8769878098       -0.4921695988       -1.4889129497
 O         -1.6111126200       -1.0625663386       -2.5630242899
 H          0.4716836105       -1.2780899085       -0.7254876103
 C          0.6338848308       -1.9173258885        0.1306032296
 C         -0.4160181590       -2.6575463387        0.6544014497
 C         -0.1723659687       -3.4770622588        1.7499160496
 C          1.0901811215       -3.5397400586        2.3132725393
 C          2.1226343813       -2.7653579785        1.8160466892
 C          1.8885208809       -1.9441877784        0.7186337593
 N          2.9010113807       -1.1292709682        0.1854158291
 S          2.4366037303        0.4041407518       -0.3644155606
 O          1.4273201204        0.9612284715        0.5073899596
 O          2.1063915200        0.3115465218       -1.7645288906
 C          3.9724704602        1.2926647720       -0.1760650509
 C          4.1630346004        2.0860022419        0.9393533491
 C          5.3718748803        2.7468085521        1.0935890089
 C          6.3651861301        2.6010078223        0.1369098786
 C          6.1590833300        1.8014873123       -0.9778039914
 C          4.9523793900        1.1392338222       -1.1389794412
 H          4.7413651499        0.5160209122       -1.9923613312
 H          6.9321316098        1.6926887325       -1.7211960016
 H          7.3047833601        3.1160145524        0.2594427085
 H          5.5327614604        3.3713832520        1.9574559689
 H          3.3581258105        2.1738960017        1.6515721793
 H          3.7206132108       -1.0823268782        0.7759630989
 H          3.0991910414       -2.7885475984        2.2751124889
 H          1.2660085618       -4.1785476487        3.1653552092
 H         -0.9859241985       -4.0450937289        2.1764758398
 C         -1.7978304592       -2.5222950089        0.0612605801
 H         -2.5165177890       -2.8004130390        0.8501473502
 C         -2.0314617493       -3.4517640788       -1.1174720500
 C         -0.9154227994       -4.0344858186       -1.9259396902
 C         -1.7045429691       -4.9117051888       -1.0035920401
 H         -2.3904977291       -5.6263335588       -1.4321359200
 H         -1.2193848888       -5.2468485388       -0.0997068803
 H          0.0959634806       -3.7759178585       -1.6514191605
 H         -1.0634153896       -4.1210833585       -2.9912740802
 H         -2.9329097395       -3.1941130089       -1.6629266097
 O         -2.4635996390       -0.7341627891        2.0724567404
