  62
        -98.93587712
 C         -2.4980930591       -1.0224872620        0.5828552233
 C         -2.5912684074        0.2658662286        1.1702403996
 C         -3.8586739690        0.9792295709        0.9825846467
 C         -4.8613358911        0.3859026691        0.3102013284
 C         -6.2271409149        0.9655393057        0.0594316268
 C         -6.2962477345        1.9001812984       -1.1559144297
 C         -5.6255619022        3.2615309453       -0.9684006963
 H         -5.9355488551        3.8897406689       -1.8057552576
 H         -5.9991948183        3.7271699938       -0.0560044006
 C         -4.0915443951        3.2118491607       -0.9315348486
 H         -3.7461043009        2.2595578313       -1.3408954503
 H         -3.6852200043        3.9995180627       -1.5700355209
 C         -3.4834992642        3.3992035611        0.4587667201
 H         -2.3972196122        3.3056213602        0.3739876550
 H         -3.7068446036        4.4038631280        0.8249650124
 C         -3.9650143426        2.3813621147        1.5010350049
 H         -3.3207799526        2.4599462983        2.3803864719
 H         -4.9906781383        2.6015509805        1.7968473664
 H         -5.8521329037        1.3906486518       -2.0139768409
 H         -7.3526701827        2.0673257325       -1.3779727932
 H         -6.8948716621        0.1198888493       -0.1182198458
 H         -6.5672690943        1.4969732282        0.9486616653
 O         -4.7454735399       -0.8600470743       -0.2156737028
 C         -3.5615969281       -1.5860396240       -0.1244523507
 O         -3.6123946878       -2.6872395276       -0.7003628828
 O         -1.6564274030        0.7909356028        1.8352618664
 C         -1.1799323959       -1.7533854281        0.7604871933
 C         -0.2346584868       -1.4596842831       -0.3771756689
 C         -0.6437915390       -1.5661421103       -1.7030404605
 C          0.2401591911       -1.2945862673       -2.7310364814
 C          1.5417242795       -0.9119735353       -2.4590537404
 C          1.9635448915       -0.8095909450       -1.1381824112
 C          1.0728426116       -1.0816355229       -0.1082954397
 H          1.4048763249       -0.9756879496        0.9135312149
 N          3.2956088734       -0.4737304392       -0.8434985771
 S          3.6384191557        0.4692439297        0.5149170825
 O          3.5385656789       -0.3582798564        1.6903463698
 O          2.8409207494        1.6748606789        0.4997981983
 C          5.3504155115        0.8514326175        0.1962067202
 C          5.6930566355        2.0937310255       -0.3024486698
 C          7.0261683656        2.3641960197       -0.5697738028
 C          7.9875598068        1.3920713917       -0.3383173099
 C          7.6281955759        0.1497366853        0.1634548384
 C          6.2977498108       -0.1265337676        0.4346401198
 H          5.9724646578       -1.0729676469        0.8337866338
 H          8.3788713321       -0.6024732755        0.3446161711
 H          9.0239980585        1.6049131343       -0.5475111919
 H          7.3088960509        3.3301041070       -0.9563031114
 H          4.9119152057        2.8202300134       -0.4595649294
 H          3.7954186213       -0.1312934088       -1.6533695915
 H          2.2282272956       -0.6975092837       -3.2639955991
 H         -0.0895099722       -1.3779566582       -3.7558130790
 H         -1.6579612136       -1.8689627496       -1.9161369092
 H         -0.7367813727       -1.3135754179        1.6694268471
 C         -1.3434027727       -3.2457773160        1.0155963518
 C         -0.9408933203       -4.3017127094        0.0348508735
 C         -0.1339852587       -4.0936878891        1.2789262039
 H         -0.1830851881       -4.8352107767        2.0618628626
 H          0.8320883082       -3.6209928427        1.1777486673
 H         -1.5685283734       -5.1762833896       -0.0401341622
 H         -0.5179707887       -3.9887523932       -0.9064419381
 H         -2.2249595774       -3.4573021572        1.6124450277
