  62
        -98.94586589
 C          2.1996510442        0.0991725092       -0.1056513630
 C          2.1049370047        1.1687980632       -1.0336355461
 C          1.5379099269        2.4229659295       -0.5255518266
 C          1.1728569687        2.5153804173        0.7654138897
 C          0.6060461344        3.7320452009        1.4448938599
 C         -0.9108858867        3.8937060471        1.2762693713
 C         -1.3659089292        4.3182743228       -0.1201391232
 H         -2.4164160093        4.6048571263       -0.0425511074
 H         -0.8088411809        5.2019862308       -0.4335182744
 C         -1.2350554975        3.2225237911       -1.1869789065
 H         -2.1492013493        3.1757853725       -1.7840443733
 H         -1.1351750432        2.2453611969       -0.7079939455
 C         -0.0736749756        3.4135622934       -2.1632041721
 H         -0.0564224781        2.5479129410       -2.8315053422
 H         -0.2475335116        4.3048896742       -2.7709214029
 C          1.3052351903        3.5363815305       -1.5004688056
 H          2.0672642999        3.4635605670       -2.2806368413
 H          1.3999288439        4.5038533309       -1.0071264323
 H         -1.2383508436        4.6544702900        1.9883716145
 H         -1.3988511981        2.9530473740        1.5417218094
 H          0.8245356771        3.6240026474        2.5094105068
 H          1.1112686253        4.6249811478        1.0757941924
 O          1.3028469724        1.4783062491        1.6315574323
 C          1.7531499794        0.2296819034        1.2106124571
 O          1.7050025262       -0.6386366090        2.0998345119
 H          0.1919947183       -1.2363726559       -1.5954757635
 C          0.3311119922       -2.0657818915       -0.9162368061
 C          1.5748631457       -2.2642716281       -0.3275763401
 C          1.7428805294       -3.3418678888        0.5307197994
 C          0.6799129166       -4.1864499707        0.8008182828
 C         -0.5641382452       -3.9674242729        0.2379660150
 C         -0.7424504885       -2.8928746185       -0.6276371641
 N         -1.9909139646       -2.6573882107       -1.2299018573
 S         -2.6541705719       -1.1288687217       -1.3450907402
 O         -3.9750156265       -1.3541434550       -1.8897400783
 O         -1.7875610603       -0.2663054905       -2.1047836821
 C         -2.8050360111       -0.5390200560        0.3304181035
 C         -1.6737102840       -0.1020956514        0.9887516334
 C         -1.7789497276        0.3122641098        2.3069010540
 C         -3.0130649552        0.2943377484        2.9386705613
 C         -4.1430181228       -0.1409401960        2.2624709188
 C         -4.0398270537       -0.5694742758        0.9488976259
 H         -4.8901581411       -0.9168899251        0.3847927944
 H         -5.1012168662       -0.1514097242        2.7563465038
 H         -3.0904511352        0.6230510879        3.9630096146
 H         -0.8887901370        0.6347081554        2.8252136922
 H         -0.7257955687       -0.0937828949        0.4728909462
 H         -2.7044904923       -3.3264147744       -0.9788666264
 H         -1.3936312421       -4.6202433183        0.4638374416
 H          0.8185240117       -5.0194495072        1.4731054306
 H          2.6969038591       -3.5040367470        1.0045090351
 C          2.6498323288       -1.2522426287       -0.6362915349
 H          2.6735064782       -1.1131107903       -1.7306805070
 C          4.0477123251       -1.6900811142       -0.2333861962
 C          5.1273790996       -0.6760021188       -0.0022924337
 C          4.6123427130       -1.4959025042        1.1405101034
 H          5.2517072081       -2.2705080300        1.5386799972
 H          3.9890063255       -1.0212316051        1.8803756465
 H          6.1171716756       -0.8799238734       -0.3823978182
 H          4.8466606218        0.3664802477       -0.0501610613
 H          4.3447353038       -2.5960285722       -0.7538575967
 O          2.4750761928        1.0763757256       -2.2348636579
