  62
        -98.94738776
 C         -2.5644532834       -0.1355625232       -0.3980497365
 C         -2.1679187022       -0.7046286146        0.8363968626
 C         -1.7248865389       -2.1050419864        0.7832617056
 C         -1.7042321798       -2.7453013658       -0.3996683984
 C         -1.2519076343       -4.1621838626       -0.6045841985
 C          0.2410736633       -4.2362446577       -0.9493476610
 C          1.1402567332       -3.4524458453        0.0070674654
 H          0.9588267227       -2.3816685722       -0.1182575247
 H          2.1735900806       -3.6319776321       -0.3004150354
 C          0.9744357828       -3.8236971470        1.4873087019
 H          1.9660554194       -3.9069763559        1.9367761173
 H          0.4934848888       -4.7993317927        1.5746885435
 C          0.1991867032       -2.7932480459        2.3110450216
 H          0.6024564006       -1.7971686529        2.1134391708
 H          0.3583819962       -3.0128981346        3.3705805451
 C         -1.3162852476       -2.7532407477        2.0758503883
 H         -1.7588773846       -2.1416284143        2.8677252721
 H         -1.7292069922       -3.7624443226        2.1480427913
 H          0.3859034090       -3.8351955203       -1.9553960068
 H          0.5402343287       -5.2865170896       -0.9533207063
 H         -1.4553385633       -4.7343058700        0.2987367668
 H         -1.8262095125       -4.5864346426       -1.4304202044
 O         -2.0810956004       -2.1611589291       -1.5672574412
 C         -2.5011375231       -0.8421580290       -1.5972728908
 O         -2.7997336520       -0.4219985710       -2.7357348009
 H         -0.4135315433        1.0530215092       -0.9832552277
 C         -0.5947820981        1.9044446795       -0.3425636348
 C         -1.8942813608        2.2078000115        0.0409305002
 C         -2.1038523134        3.3182404958        0.8487784354
 C         -1.0317371275        4.0802967965        1.2807276543
 C          0.2643168051        3.7456402507        0.9338940481
 C          0.4824720956        2.6455357764        0.1123612122
 N          1.7819159074        2.2683041455       -0.2794281794
 S          2.0898972731        0.6032592387       -0.3038699989
 O          1.6434263049        0.0629754332       -1.5646325449
 O          1.5600927996       -0.0103084093        0.8905117966
 C          3.8724562199        0.5992795946       -0.2597709560
 C          4.5270205987        0.2556935679        0.9074043006
 C          5.9129400740        0.2835025802        0.9313909146
 C          6.6156048878        0.6553672685       -0.2046449426
 C          5.9440916583        0.9961795343       -1.3698113923
 C          4.5590713313        0.9683815199       -1.4012912608
 H          3.9936427477        1.2148574221       -2.2849071549
 H          6.4936752759        1.2818091648       -2.2521352896
 H          7.6936643605        0.6772476908       -0.1831265617
 H          6.4371870877        0.0153251388        1.8343915537
 H          3.9369682669       -0.0314065907        1.7629862661
 H          2.4970196141        2.7568734686        0.2438554006
 H          1.0998779296        4.3267879649        1.2937087436
 H         -1.2076596317        4.9376314762        1.9127146302
 H         -3.1052537649        3.5802905986        1.1490869531
 C         -3.0066000637        1.3156809117       -0.4566563581
 H         -3.1713727448        1.5393053543       -1.5218523940
 C         -4.3110765376        1.5052732322        0.2898067198
 C         -5.2929631503        2.5469407886       -0.1534056721
 C         -5.5885129441        1.0952310377       -0.3771532253
 H         -6.3539367808        0.6234472007        0.2203040762
 H         -5.5163663681        0.7046092493       -1.3821249283
 H         -5.0320779394        3.1468559969       -1.0122077356
 H         -5.8615910167        3.0726415031        0.5987835417
 H         -4.2132815449        1.3067071151        1.3508723632
 O         -2.2006655152       -0.0805009724        1.9297240467
