  62
        -98.94337100
 C         -1.2238982936       -0.6547590256        0.5929739349
 C         -1.9431803921       -0.4962362451       -0.6171741090
 C         -2.9391067356        0.5846752035       -0.6275005437
 C         -3.0445190733        1.4138816978        0.4253330928
 C         -3.9937807811        2.5745925399        0.5500858762
 C         -5.3988563899        2.1829413914        1.0283154320
 C         -6.2554038890        1.4461204334       -0.0023188416
 H         -7.2760238736        1.4274282367        0.3849465239
 H         -6.2703342243        2.0149527417       -0.9325032185
 C         -5.8081009912        0.0050962272       -0.2849399341
 H         -5.1457094815       -0.3337062315        0.5149658294
 H         -6.6788053331       -0.6542686198       -0.2799078194
 C         -5.1016167032       -0.1874873901       -1.6269421215
 H         -5.7976062271        0.0256847504       -2.4411483464
 H         -4.7994550873       -1.2347238607       -1.7078819504
 C         -3.8513818500        0.6828535356       -1.8127067507
 H         -3.3019907973        0.3178756710       -2.6841761569
 H         -4.1361920000        1.7199615887       -1.9896730701
 H         -5.9156470112        3.1041713718        1.3071249050
 H         -5.3030355939        1.5706434319        1.9280664199
 H         -4.0635528772        3.0946800389       -0.4059264557
 H         -3.5558298835        3.2560590950        1.2829489840
 O         -2.2530825848        1.2992136710        1.5254216973
 C         -1.3361011891        0.2666288708        1.6368347425
 O         -0.6771993034        0.2825351308        2.6970614679
 O         -1.7756590046       -1.2096023291       -1.6393596573
 C         -0.1822551078       -1.7462879599        0.7643278666
 C          0.7710628540       -1.7315996852       -0.4059108122
 C          1.1499156722       -2.8562655292       -1.1261090717
 C          2.0620375296       -2.7447505506       -2.1620117569
 C          2.6325989737       -1.5267650202       -2.4836259548
 C          2.2562961419       -0.3944057811       -1.7695378010
 C          1.3294989838       -0.5068968143       -0.7479506256
 H          1.0156028791        0.3824570075       -0.2227061565
 N          2.8068217019        0.8647675608       -2.0529103517
 S          3.0599877637        1.9471803171       -0.8057520618
 O          1.8173601132        2.5616152890       -0.4079558703
 O          4.0701251888        2.8491630596       -1.3179272801
 C          3.7441581382        0.9689211924        0.5211776895
 C          3.0285920442        0.7477328395        1.6798190911
 C          3.5800118000       -0.0587161436        2.6636093025
 C          4.8305147648       -0.6253059110        2.4747964502
 C          5.5423571172       -0.3852152624        1.3089746708
 C          4.9950628733        0.4164597813        0.3214395038
 H          5.5219561339        0.6345619459       -0.5931751082
 H          6.5173620251       -0.8224193694        1.1668718840
 H          5.2517988721       -1.2550347992        3.2423722899
 H          3.0189270041       -0.2411350633        3.5665578668
 H          2.0540057391        1.1950114699        1.8031715820
 H          3.5627776959        0.8643395775       -2.7212730384
 H          3.3492265438       -1.4460045543       -3.2863149152
 H          2.3399699180       -3.6239284451       -2.7231599197
 H          0.7172132313       -3.8152190479       -0.8936168765
 H          0.3972834576       -1.4388969929        1.6515730838
 C         -0.7494842168       -3.1227657606        1.0787974571
 C         -2.1229054704       -3.2811851193        1.6587051848
 C         -1.8392968127       -3.7513931666        0.2653488317
 H         -1.7940629434       -4.8157885924        0.0858102648
 H         -2.2328797812       -3.1832880377       -0.5617888330
 H         -2.2711700039       -4.0174959863        2.4345413212
 H         -2.7179947273       -2.3878437637        1.7852385228
 H          0.0108413820       -3.7920936775        1.4692465207
