  62
        -98.94153299
 C         -2.1349855288       -0.7702038695        0.2737223898
 C         -2.9771423587       -0.1541382296        1.2343103699
 C         -3.8168895787        0.9495816105        0.7512048801
 C         -3.6906491089        1.3592100905       -0.5238234699
 C         -4.5287608189        2.4235619606       -1.1691740597
 C         -5.7767522390        1.8191005407       -1.8286193796
 C         -6.5560484289        0.8657839006       -0.9222910096
 H         -7.4288372090        0.5253442706       -1.4835174596
 H         -5.9422287989       -0.0149182294       -0.7194380698
 C         -7.0118757088        1.4829697405        0.4073651405
 H         -8.0515281988        1.2007910005        0.5859375905
 H         -6.9782057288        2.5710196805        0.3411161705
 C         -6.2107039187        1.0251827004        1.6275744003
 H         -6.1668178387       -0.0667966196        1.6485942103
 H         -6.7441526486        1.3479599004        2.5255125004
 C         -4.7791412986        1.5671494404        1.7264396702
 H         -4.7887054387        2.6541289304        1.6229175303
 H         -4.3972713686        1.3195959003        2.7213513702
 H         -6.4278513190        2.6352373007       -2.1468694995
 H         -5.4642613991        1.2670876007       -2.7181560897
 H         -4.8197308789        3.1558807305       -0.4183995796
 H         -3.9275225390        2.9192429307       -1.9333585997
 O         -2.8039514390        0.8086910906       -1.3905164300
 C         -2.0104862089       -0.2738518294       -1.0251088302
 O         -1.2582067690       -0.6728620794       -1.9324129103
 H          0.2896965213        0.0522598704        1.4032305096
 C          0.8145621912       -0.6515800596        0.7679105595
 C          0.1383349112       -1.7744760295        0.3062181795
 C          0.8153433911       -2.6615076995       -0.5193317706
 C          2.1323574211       -2.4221297295       -0.8707960407
 C          2.8029504311       -1.3066623995       -0.4046273207
 C          2.1329481812       -0.4079105796        0.4154781694
 N          2.8051480813        0.7200584104        0.9141628294
 S          3.7935899312        1.6129136605       -0.1039422506
 O          3.8691662512        2.9215250404        0.5099024695
 O          3.3388368110        1.5736461606       -1.4742738706
 C          5.3779725512        0.8125104105        0.0436624392
 C          5.8854581413        0.6000667804        1.3106012691
 C          7.1198748613       -0.0154694197        1.4422821389
 C          7.8236941012       -0.4030523096        0.3117170588
 C          7.3026533911       -0.1787875895       -0.9532843711
 C          6.0676619611        0.4357201205       -1.0919922809
 H          5.6197129010        0.6240505606       -2.0549159909
 H          7.8509875810       -0.4802970094       -1.8312634512
 H          8.7838055612       -0.8830072296        0.4171183987
 H          7.5279601914       -0.1918230497        2.4244375789
 H          5.3082082514        0.9173489803        2.1628757192
 H          2.2269855613        1.3250945204        1.4787313495
 H          3.8262647311       -1.1159255995       -0.6831751008
 H          2.6448120610       -3.1149636094       -1.5207501308
 H          0.3047659111       -3.5259334494       -0.9101549106
 C         -1.2976731588       -1.9513182896        0.7310406596
 H         -1.3299323087       -1.8934715696        1.8323487697
 C         -1.8776845188       -3.3068581895        0.3557159396
 C         -3.3540299388       -3.4897695695        0.1733193897
 C         -2.4349656090       -3.5961617294       -1.0046145604
 H         -2.2624204990       -4.5736189794       -1.4310186804
 H         -2.4269228790       -2.7971403594       -1.7291764503
 H         -3.9804595888       -2.6131059195        0.2549102899
 H         -3.8117827988       -4.3898174395        0.5553633597
 H         -1.3527320888       -4.1195070796        0.8482813695
 O         -3.0224550186       -0.5112356097        2.4422082199
