  62
        -98.94341510
 C         -1.9486024349       -0.8533960763        0.0239544639
 C         -2.2467442687        0.1063648256        1.0187363320
 C         -2.5771548539        1.4500424879        0.5336562504
 C         -2.5344906413        1.7114535755       -0.7855441430
 C         -2.8120918162        3.0410714688       -1.4335079134
 C         -4.3020198394        3.3224593507       -1.6729048116
 C         -5.1144498391        3.6419655700       -0.4174414531
 H         -4.6192442456        4.4367722929        0.1411084340
 H         -6.0794489435        4.0288262736       -0.7505982756
 C         -5.3570879260        2.4378911183        0.5031751158
 H         -6.4058555923        2.4170940041        0.8075247349
 H         -5.1638516310        1.5139226102       -0.0466025795
 C         -4.5159274284        2.4364414030        1.7796598075
 H         -4.7918834593        3.2901041339        2.4026020189
 H         -4.7412545127        1.5244629399        2.3383250534
 C         -3.0012240705        2.4796086243        1.5372869649
 H         -2.6986709162        3.4748298309        1.2112712899
 H         -2.4933497992        2.2524970582        2.4783078132
 H         -4.3662894764        4.1781626983       -2.3488485488
 H         -4.7412187421        2.4618000375       -2.1823186360
 H         -2.3796867376        3.8384911021       -0.8282565742
 H         -2.3029570118        3.0254070632       -2.3995793532
 O         -2.2067743286        0.7695647306       -1.7097489345
 C         -1.9149557342       -0.5328797720       -1.3328232578
 O         -1.6490152269       -1.2943160427       -2.2829124840
 O         -2.2369380833       -0.1490739146        2.2550487907
 C         -1.5976438791       -2.2667200500        0.4441925108
 C         -0.2142215640       -2.6454632865       -0.0274320428
 C          0.1177214407       -3.9366453607       -0.4192114192
 C          1.4091190312       -4.2380207964       -0.8158997317
 C          2.3923823375       -3.2670596018       -0.8293170602
 C          2.0694742308       -1.9695601587       -0.4439716253
 C          0.7794955205       -1.6751015151       -0.0354526041
 H          0.5438827360       -0.6663664431        0.2730994302
 N          3.0351116359       -0.9518767206       -0.4986815201
 S          2.8601122214        0.4450724104        0.4210628457
 O          2.6294831372        0.1112346462        1.8098177525
 O          1.8836593237        1.3021199905       -0.2053956990
 C          4.4897489280        1.1415535812        0.2246405052
 C          5.4337487332        0.9538655395        1.2165058803
 C          6.7064974999        1.4732750860        1.0380366709
 C          7.0130165460        2.1645381777       -0.1243586870
 C          6.0548185801        2.3457851019       -1.1108759500
 C          4.7801416761        1.8301969547       -0.9380440351
 H          3.9998040959        1.9524312251       -1.6713080133
 H          6.2953550875        2.8863916247       -2.0120291327
 H          8.0039400523        2.5675504727       -0.2613833524
 H          7.4521744000        1.3369308708        1.8045301562
 H          5.1462940012        0.4166443788        2.1059495912
 H          3.9852897982       -1.2949697606       -0.5035506641
 H          3.3971673752       -3.5022308475       -1.1447483573
 H          1.6529912865       -5.2452539018       -1.1178803192
 H         -0.6362698361       -4.7067179888       -0.4154104829
 H         -1.5853077975       -2.2491645737        1.5456649745
 C         -2.6703200594       -3.2341949365       -0.0158203522
 C         -3.0237144820       -4.4329179858        0.8116203672
 C         -3.9706429399       -3.2750163780        0.7279458726
 H         -4.8843349508       -3.3907245004        0.1646309197
 H         -4.0665882202       -2.6278466744        1.5878471065
 H         -3.2911469482       -5.3479700388        0.3049298994
 H         -2.4863235124       -4.5783592881        1.7366381616
 H         -2.7075457348       -3.3243396940       -1.0958115447
