  62
        -98.94522877
 C          2.4561311618       -1.2185009397        0.0760665025
 C          3.5036209803       -0.7624925363       -0.7647964922
 C          4.3282269305        0.3275735565       -0.2347676770
 C          4.0671122210        0.8270568165        0.9868099277
 C          4.8242737327        1.9322024297        1.6716972663
 C          4.3685913281        3.3411756691        1.2676448682
 C          4.7784481506        3.7791290930       -0.1391107560
 H          4.5880749856        4.8520139543       -0.2076298099
 H          5.8510341072        3.6295901473       -0.2665589869
 C          4.0193943028        3.0708829438       -1.2700442430
 H          3.1163574071        2.6050021814       -0.8674742148
 H          3.6944170582        3.8083975155       -2.0073876147
 C          4.8340552578        2.0136798788       -2.0156936401
 H          5.6664357314        2.4926114628       -2.5358932834
 H          4.1880235975        1.5512819011       -2.7661074789
 C          5.3931810891        0.8997358403       -1.1209864050
 H          5.7590231825        0.0951552283       -1.7633157832
 H          6.2230395084        1.2768920872       -0.5240863874
 H          3.2815921280        3.3980248016        1.3653556542
 H          4.8030754596        4.0419731729        1.9843744252
 H          4.6525455555        1.8091461237        2.7432217428
 H          5.8911667375        1.8228783327        1.4752457042
 O          3.0620142399        0.3539743147        1.7696652497
 C          2.2175120471       -0.6562268740        1.3301290740
 O          1.3278007571       -0.9578906663        2.1503008815
 O          3.7388587014       -1.2478477203       -1.9026142238
 C          1.5444211239       -2.3115328007       -0.4594460032
 C          0.2119641901       -1.6771888673       -0.7719708319
 C          0.0348035096       -1.0280247010       -1.9908529112
 C         -1.1430599014       -0.3613662642       -2.2709804043
 C         -2.1638486563       -0.3158058620       -1.3370207078
 C         -1.9896949504       -0.9457310175       -0.1127134194
 C         -0.8171546748       -1.6388330994        0.1560689715
 H         -0.6899913857       -2.1105813951        1.1176414900
 N         -3.0130126006       -0.8807061802        0.8516510260
 S         -3.6032180731        0.6462448527        1.2350513778
 O         -2.6186626839        1.6778380644        1.0014591430
 O         -4.1117668222        0.5314699784        2.5848449992
 C         -4.9790847731        0.8521173192        0.1213835189
 C         -5.9667261747       -0.1135667141        0.1209835084
 C         -7.0476789726        0.0352493543       -0.7330998016
 C         -7.1243690800        1.1420926619       -1.5655211556
 C         -6.1267191114        2.1046655416       -1.5507189625
 C         -5.0420452853        1.9611473795       -0.6992752452
 H         -4.2394547254        2.6803628852       -0.6570823464
 H         -6.1876114678        2.9647939675       -2.1979998039
 H         -7.9665670897        1.2554364097       -2.2297030185
 H         -7.8254165089       -0.7111465081       -0.7474643524
 H         -5.8704142515       -0.9556710383        0.7856053517
 H         -2.7866829614       -1.3832310607        1.6987859425
 H         -3.0797478035        0.2144778611       -1.5410581417
 H         -1.2672152747        0.1335699540       -3.2221942699
 H          0.8427827720       -1.0390271278       -2.7090336135
 H          2.0015613460       -2.6309390764       -1.4055125003
 C          1.4578756143       -3.5057975419        0.4664444821
 C          0.8833598987       -4.7897631532       -0.0507815004
 C          2.3520750191       -4.6835909243        0.2258221408
 H          2.7564431070       -5.2046532044        1.0806756851
 H          3.0288228751       -4.6336045438       -0.6144471975
 H          0.2768446718       -5.3877253006        0.6120409892
 H          0.5618302816       -4.8099971374       -1.0809844754
 H          1.2614982058       -3.2403953728        1.4979210924
