  62
        -98.95044149
 C          1.7343312767        1.3155728696       -0.2370912476
 C          2.8601995003        0.7198498930        0.3757063225
 C          3.3151212835       -0.5473014465       -0.2094164848
 C          2.6573507918       -1.0584783904       -1.2663729324
 C          2.9919597581       -2.3593362150       -1.9363174817
 C          2.1928160379       -3.5214821335       -1.3319637720
 C          2.2459218868       -3.5835185253        0.1945172482
 H          1.7062484994       -2.7239059557        0.6000773486
 H          1.6871188316       -4.4712357926        0.5010057589
 C          3.6621331505       -3.6409089315        0.7840999019
 H          4.3690355678       -3.9610171219        0.0173639906
 H          3.6778396925       -4.3938244078        1.5750952963
 C          4.1486996151       -2.3317851037        1.4084621765
 H          3.3881849974       -1.9539241087        2.0971664731
 H          5.0453962144       -2.5478334722        1.9959093294
 C          4.5053252072       -1.2126109403        0.4221342603
 H          5.0244710870       -0.4288715652        0.9819706566
 H          5.1846475073       -1.5973295147       -0.3413298733
 H          1.1451248363       -3.4121963608       -1.6224362584
 H          2.5710789208       -4.4560770448       -1.7516262647
 H          4.0592488702       -2.5489561874       -1.8373640223
 H          2.7434469908       -2.2732827831       -2.9957264317
 O          1.5849001644       -0.4536063523       -1.8344800013
 C          1.0772586403        0.7251975571       -1.3157187219
 O          0.0632390245        1.1518950787       -1.9025643319
 O          3.4569476805        1.2259652775        1.3662125495
 C          1.1748876158        2.6061842542        0.3326678054
 C         -0.2696754501        2.4155525735        0.7250244464
 C         -1.2504601558        3.3793814430        0.5250938380
 C         -2.5643406133        3.1307103657        0.8840237174
 C         -2.9333303534        1.9115145660        1.4224837659
 C         -1.9574018647        0.9454763698        1.6352944850
 C         -0.6370059191        1.2148777305        1.3186694099
 H          0.1074828738        0.4525070553        1.4961751190
 N         -2.2741868117       -0.3342946643        2.1422975698
 S         -2.0562040285       -1.6033357650        1.0626308317
 O         -2.5156624404       -2.7821261011        1.7666205566
 O         -0.6940988113       -1.6259490790        0.6009402011
 C         -3.1935063564       -1.2241388255       -0.2584936953
 C         -4.4594285251       -1.7772937295       -0.2079424224
 C         -5.3882509134       -1.4211383315       -1.1714895719
 C         -5.0406598250       -0.5103916257       -2.1583762824
 C         -3.7680518956        0.0375958176       -2.1921772864
 C         -2.8298810583       -0.3176047581       -1.2338572119
 H         -1.8324859460        0.0950957956       -1.2492013369
 H         -3.4888669825        0.7454465744       -2.9561366507
 H         -5.7642733998       -0.2262291359       -2.9061007978
 H         -6.3775432209       -1.8490055686       -1.1477410443
 H         -4.6818344798       -2.4814760529        0.5777413792
 H         -3.2061776560       -0.3950761031        2.5308468240
 H         -3.9629611044        1.7050459873        1.6733537018
 H         -3.3145131584        3.8893026492        0.7215070586
 H         -0.9866497668        4.3248836010        0.0800835849
 H          1.7602304258        2.8038883646        1.2436357016
 C          1.3850817830        3.7488976347       -0.6399811676
 C          1.6087114266        5.1436416601       -0.1384588006
 C          2.7442253702        4.3720633906       -0.7384382458
 H          3.1103999896        4.6602349258       -1.7123193846
 H          3.5108488268        3.9899655725       -0.0801137645
 H          1.1974974364        5.9667713133       -0.7031523423
 H          1.6117214930        5.2969187699        0.9301286512
 H          0.8274798784        3.6162212434       -1.5604903656
