  62
        -98.93322802
 C         -2.5413950816       -1.2954910022        0.3598153765
 C         -2.9186169153       -0.1454576925        1.0944324867
 C         -4.0912224682        0.6132358991        0.6205065224
 C         -4.7350562495        0.1798481348       -0.4791847640
 C         -5.9265833109        0.7894421019       -1.1694865804
 C         -5.5649989386        2.0376447504       -1.9892781726
 C         -4.6395991372        3.0237503441       -1.2817787474
 H         -4.3830551836        3.8101025969       -1.9966959294
 H         -3.7106211526        2.5165495703       -1.0139647605
 C         -5.2285074056        3.6937228018       -0.0424594973
 H         -6.1456214992        4.2180959860       -0.3198645918
 H         -4.5066394858        4.4427330585        0.2934770702
 C         -5.5335296198        2.7688946601        1.1383536854
 H         -6.4600486395        2.2226858309        0.9828740510
 H         -5.6908419958        3.4031880818        2.0156615588
 C         -4.4087821225        1.8021921873        1.4950663430
 H         -4.6060897737        1.3884798571        2.4915242342
 H         -3.4718796641        2.3621339479        1.5985949824
 H         -6.4896575835        2.5427450972       -2.2736540476
 H         -5.0644065413        1.7089882544       -2.9032519196
 H         -6.7034791244        1.0148323648       -0.4449568567
 H         -6.3159381125        0.0284388116       -1.8494293698
 O         -4.3292157084       -0.9250817846       -1.1645479989
 C         -3.2327555263       -1.6840403130       -0.7877342343
 O         -3.0057684015       -2.6462955537       -1.5425615742
 O         -2.2985476990        0.2369031075        2.1254919537
 C         -1.3375275723       -2.0653088635        0.8731914219
 C         -0.0793716768       -1.5254286113        0.2430558610
 C          0.0761114851       -1.4891087475       -1.1398083447
 C          1.2286870763       -0.9694046085       -1.6992101656
 C          2.2419683173       -0.4694164479       -0.8987452681
 C          2.0860486714       -0.4777346908        0.4802859740
 C          0.9322809905       -1.0132826143        1.0407596508
 H          0.8087897867       -1.0083642777        2.1153574457
 N          3.1053629625        0.0274997091        1.3014095638
 S          3.8652847710        1.4636340599        0.8820384237
 O          4.3925680688        1.9814809266        2.1253998334
 O          2.9857604084        2.3377169341        0.1415138011
 C          5.2207812608        0.9368492019       -0.1464376774
 C          5.4084171066        1.5133831772       -1.3872944909
 C          6.4756672682        1.0945788493       -2.1667360318
 C          7.3325288141        0.1128785012       -1.6934016231
 C          7.1324736839       -0.4536373312       -0.4432843562
 C          6.0683969725       -0.0386616454        0.3411892019
 H          5.8808332861       -0.4516540743        1.3181404675
 H          7.8009914206       -1.2168051534       -0.0786493481
 H          8.1609987326       -0.2125955157       -2.3024900525
 H          6.6329927535        1.5346115384       -3.1384037634
 H          4.7136274027        2.2695385784       -1.7172531293
 H          2.8862764991        0.0079055432        2.2869231223
 H          3.1372915803       -0.0570533101       -1.3340347798
 H          1.3402351595       -0.9510691089       -2.7728334017
 H         -0.7187317604       -1.8674660884       -1.7652043876
 H         -1.2950980577       -1.8251742284        1.9476752128
 C         -1.4832340838       -3.5754698498        0.7528666511
 C         -0.6217360637       -4.4312580902       -0.1218503172
 C         -0.4455675213       -4.4705709684        1.3644116820
 H         -0.7689348212       -5.3462791126        1.9062936551
 H          0.4346328437       -3.9966560599        1.7729340637
 H         -1.0919735216       -5.2688056104       -0.6139189277
 H          0.1449019937       -3.9553319302       -0.7120263125
 H         -2.5164869542       -3.8899713101        0.8566201181
