  62
        -98.94471686
 C          2.0221346668        1.1786893971       -0.2451162868
 C          3.1164799071        1.1658849423        0.6614031572
 C          4.3188917543        0.4501979355        0.2249889211
 C          4.3461743176       -0.1230229607       -0.9913839473
 C          5.5041171854       -0.8695628115       -1.5955016319
 C          5.5847720111       -2.3422452434       -1.1706788517
 C          6.0361997511       -2.5793623841        0.2710707235
 H          6.2587879466       -3.6441026881        0.3655916218
 H          6.9634978824       -2.0356399163        0.4542331186
 C          4.9947792484       -2.1975683186        1.3325245110
 H          4.9218821708       -2.9958628928        2.0746381024
 H          4.0115291694       -2.1084296625        0.8641871893
 C          5.3024693602       -0.9042956599        2.0876951755
 H          6.2179828174       -1.0294370686        2.6700790410
 H          4.4827425188       -0.7128165373        2.7848607781
 C          5.4593294674        0.3299664749        1.1898540343
 H          5.4532911094        1.2191561516        1.8248797985
 H          6.4077772327        0.2880288138        0.6547203291
 H          4.6076629744       -2.8055325896       -1.3271051908
 H          6.2962057269       -2.8352660024       -1.8372585206
 H          5.3689095059       -0.8305514348       -2.6785807343
 H          6.4373236176       -0.3652605651       -1.3432550674
 O          3.2903859533       -0.0680938548       -1.8425772593
 C          2.1003510720        0.5532776580       -1.4892910838
 O          1.2240507442        0.4693845224       -2.3749553496
 H         -0.4674362811       -0.1152190496       -1.0916372813
 C         -0.8019578680       -0.0392759614       -0.0677216879
 C         -0.2615193688        0.9401193667        0.7536390461
 C         -0.7018616711        1.0210619447        2.0693985297
 C         -1.6500997264        0.1353564315        2.5520255107
 C         -2.1768931257       -0.8479834381        1.7344994848
 C         -1.7436181003       -0.9353659554        0.4171873666
 N         -2.2685508561       -1.9304776827       -0.4243471741
 S         -3.9236257308       -2.1689412566       -0.4100796577
 O         -4.2808495956       -3.0083282159        0.7071504671
 O         -4.2482107830       -2.6924696419       -1.7184175782
 C         -4.6299431055       -0.5450909233       -0.1900523066
 C         -5.4455396844       -0.2903142167        0.8934028597
 C         -5.9623231186        0.9849159723        1.0583235704
 C         -5.6515709563        1.9789726827        0.1438758303
 C         -4.8319729649        1.7064171571       -0.9408621406
 C         -4.3146340504        0.4330678472       -1.1124428374
 H         -3.6764568009        0.1907418821       -1.9474349247
 H         -4.5905080964        2.4804786587       -1.6514782341
 H         -6.0495255821        2.9727194228        0.2752662807
 H         -6.6009983378        1.1990936312        1.8999801744
 H         -5.6567585790       -1.0919327678        1.5822878175
 H         -1.9049254396       -1.8979305526       -1.3654228571
 H         -2.9047846815       -1.5558086489        2.0968592346
 H         -1.9797820786        0.2080020839        3.5770064096
 H         -0.2836243770        1.7749542463        2.7199125602
 C          0.7704001471        1.9050293379        0.2191887036
 H          1.1023845090        2.5339040414        1.0560586696
 C          0.1651252184        2.8029359233       -0.8427928916
 C         -0.7109223317        3.9420392889       -0.4195843631
 C          0.6550627792        4.2125559128       -0.9737906534
 H          0.7400073312        4.6378174520       -1.9625704683
 H          1.4283436719        4.5376757492       -0.2929716197
 H         -0.8659776997        4.0877010313        0.6384632696
 H         -1.5680026492        4.1853582489       -1.0279646409
 H         -0.0900478788        2.2797024023       -1.7549110235
 O          3.0889755285        1.7373163963        1.7833898031
