  62
        -98.93269141
 C         -1.4645921213        0.5618374484        0.5977807188
 C         -2.7636258800        0.8834493207        1.0608002814
 C         -3.9017058238        0.2757148219        0.3468129964
 C         -3.6570939349       -0.4942548890       -0.7281843908
 C         -4.6381108300       -1.2204568357       -1.6135723148
 C         -5.8944623417       -0.4418486603       -2.0333785808
 C         -7.1765711040       -0.9532545329       -1.3740073714
 H         -7.1378758839       -2.0440007528       -1.3384804920
 H         -8.0264782369       -0.6781498253       -2.0026624724
 C         -7.4470622292       -0.4119827032        0.0288877922
 H         -8.3019538161       -0.9581883223        0.4346344955
 H         -7.7365825041        0.6390274806       -0.0387468958
 C         -6.2802199333       -0.5279485453        1.0117378609
 H         -5.7783362535       -1.4880947083        0.8973904024
 H         -6.6921508684       -0.5026269809        2.0229136656
 C         -5.2611746894        0.6154125194        0.8942747505
 H         -5.0632934303        1.0348436940        1.8857347293
 H         -5.6848054307        1.4332888741        0.3039861361
 H         -6.0067970236       -0.5489005005       -3.1135382048
 H         -5.7596788355        0.6189587802       -1.8276888321
 H         -4.9275467598       -2.1512092003       -1.1193965671
 H         -4.0641101036       -1.5033165180       -2.4987779278
 O         -2.3912491162       -0.7437389177       -1.1656627634
 C         -1.2665026853       -0.2335207209       -0.5316981938
 O         -0.1959218075       -0.5595192267       -1.0728495850
 O         -2.9698433007        1.6530278624        2.0382872278
 C         -0.2855047618        1.1796054469        1.3284503397
 C          0.6580184534        1.8088268036        0.3368299901
 C          0.2359233573        2.9274393322       -0.3770405063
 C          1.0583911983        3.5131926486       -1.3193885305
 C          2.3178298815        2.9967400309       -1.5686964398
 C          2.7459075144        1.8770044001       -0.8650584006
 C          1.9194481214        1.2951466266        0.0864206492
 H          2.2624785354        0.4247262447        0.6185550525
 N          3.9926735648        1.3080414982       -1.1335341823
 S          4.7859029689        0.2835796287       -0.0971064802
 O          4.7470725438        0.7637059723        1.2657382316
 O          6.1087595667        0.1530190341       -0.6720483869
 C          3.9436564097       -1.2819097157       -0.2131488433
 C          3.2573989976       -1.6196908656       -1.3612980037
 C          2.6412698735       -2.8586224244       -1.4307834971
 C          2.7283378394       -3.7375626087       -0.3629975209
 C          3.4275346153       -3.3865465110        0.7813177291
 C          4.0407673414       -2.1467618250        0.8593094941
 H          4.5825246514       -1.8272375419        1.7357261811
 H          3.4916948435       -4.0710653408        1.6122890845
 H          2.2445350306       -4.7000074871       -0.4206804776
 H          2.0865007715       -3.1272504347       -2.3151224997
 H          3.1900673832       -0.9149147069       -2.1728253591
 H          4.5910233088        1.7902490887       -1.7846657588
 H          2.9600793691        3.4486437375       -2.3090216258
 H          0.7184953295        4.3798037790       -1.8664594832
 H         -0.7518341514        3.3257044826       -0.1879376898
 H         -0.7319586524        1.9870489592        1.9325746841
 C          0.4101607719        0.2435888497        2.3046309171
 C         -0.3641147053       -0.8022437076        3.0481354772
 C          0.6411978206       -1.2081020254        2.0144550613
 H          1.5699917985       -1.6491508791        2.3463586558
 H          0.2917313511       -1.5962030619        1.0709307137
 H         -0.1327332554       -0.9715445311        4.0889246797
 H         -1.4125998445       -0.9070759562        2.8097771329
 H          1.1917062622        0.7536161789        2.8612542151
