  62
        -98.94357194
 C          2.5573576600        0.0220070007       -0.1366997497
 C          2.4292028495        1.1705466607       -0.9571801696
 C          1.9351632089        2.3859690004       -0.3030362796
 C          1.6303239487        2.3585991102        1.0066396004
 C          1.1020550980        3.5088371398        1.8197003304
 C         -0.4199389921        3.6757201091        1.7126022902
 C         -0.9110285621        4.2754121290        0.3943314001
 H         -1.9527882823        4.5667653285        0.5419434200
 H         -0.3450872225        5.1810415093        0.1716732203
 C         -0.8373459415        3.3122103892       -0.7984007099
 H         -0.7556496311        2.2838747392       -0.4363550300
 H         -1.7683836514        3.3618799588       -1.3690202501
 C          0.3022372485        3.5888287498       -1.7798230997
 H          0.1364384481        4.5503110698       -2.2722566497
 H          0.2792867290        2.8079024299       -2.5447918698
 C          1.7020720184        3.5995158404       -1.1518383695
 H          2.4381164385        3.5863069208       -1.9599481494
 H          1.8428605779        4.5064096604       -0.5636188794
 H         -0.7380245125        4.3283258989        2.5291650702
 H         -0.8859662016        2.6975885789        1.8583735900
 H          1.5968594976        4.4334883001        1.5209811605
 H          1.3548933179        3.2958710899        2.8605676104
 O          1.7855211391        1.2452749902        1.7670738903
 C          2.1863726197        0.0398367904        1.2099913102
 O          2.1914217901       -0.9068281197        2.0196985001
 O          2.7086318997        1.1759373310       -2.1877201996
 C          2.9109790807       -1.2933924790       -0.8133572098
 C          1.8443007611       -2.2969587796       -0.4516543601
 C          2.0844615316       -3.5340567395        0.1285533898
 C          1.0244660019       -4.3403636001        0.5090465896
 C         -0.2833514782       -3.9241025107        0.3442413494
 C         -0.5325864487       -2.6922061807       -0.2521868505
 C          0.5278110010       -1.9118021102       -0.6744482102
 H          0.3263454706       -0.9557143802       -1.1374502302
 N         -1.8448365289       -2.2222076613       -0.4436549906
 S         -2.0877732097       -0.5497873715       -0.3681824905
 O         -1.7968555698        0.0081933088       -1.6652856104
 O         -1.3821700502        0.0204566788        0.7570402697
 C         -3.8471871198       -0.4962624223       -0.0829753608
 C         -4.3199559800       -0.4315168927        1.2140706392
 C         -5.6892611201       -0.4254882034        1.4293604090
 C         -6.5576857099       -0.4872047237        0.3498122988
 C         -6.0683900496       -0.5499519733       -0.9465180011
 C         -4.7004299096       -0.5553515826       -1.1684428509
 H         -4.2714810194       -0.5936941323       -2.1561083408
 H         -6.7461709995       -0.5942082536       -1.7835997412
 H         -7.6225963699       -0.4830849642        0.5203020787
 H         -6.0718884602       -0.3726665136        2.4359155589
 H         -3.6066736802       -0.3755999024        2.0212099893
 H         -2.5256267188       -2.7252743217        0.1090011292
 H         -1.1047760180       -4.5391112311        0.6792839693
 H          1.2220199123       -5.2968540500        0.9690751295
 H          3.0969371617       -3.8523335691        0.3155438400
 H          2.8193844208       -1.0734156990       -1.8912865298
 C          4.3312938409       -1.7867919184       -0.5941399396
 C          5.4344924604       -0.8287200979       -0.2598528894
 C          4.9752787407       -1.8269529382        0.7579930605
 H          5.6271590511       -2.6575182579        0.9868139005
 H          4.3937453604       -1.4805021286        1.5970724104
 H          6.3976804605       -0.9705233074       -0.7266347792
 H          5.1651520699        0.2077653820       -0.1151560293
 H          4.5874080014       -2.5913502182       -1.2771249997
