  62
        -98.94232852
 C         -1.2340444849       -1.6672537797        0.8193878719
 C         -2.2158069283       -1.3884677522       -0.1646353583
 C         -3.1057929431       -0.2520300990        0.1308583052
 C         -2.9137827244        0.4940094075        1.2316478662
 C         -3.7488614864        1.6645126485        1.6752969376
 C         -3.3956599107        2.9892718064        0.9866715833
 C         -3.8557189462        3.1102264731       -0.4664903512
 H         -4.9109372351        2.8432919863       -0.5383090569
 H         -3.7655331458        4.1623842501       -0.7443274389
 C         -3.0417031519        2.2723816191       -1.4615424752
 H         -2.8111992661        2.8756454028       -2.3434113090
 H         -2.0805756099        1.9954812618       -1.0224678706
 C         -3.7382880266        1.0056560276       -1.9579342673
 H         -4.6081073187        1.2766711111       -2.5620718453
 H         -3.0348424492        0.4685338710       -2.5995690108
 C         -4.1984002751        0.0505514206       -0.8502501554
 H         -5.0631597262        0.4677082523       -0.3331647640
 H         -4.4915488802       -0.8931053429       -1.3182583050
 H         -2.3136226255        3.1341203996        1.0346834809
 H         -3.8661424965        3.7902601562        1.5620037163
 H         -4.8044185525        1.4414526703        1.5146545244
 H         -3.5769837201        1.7767257489        2.7481081745
 O         -1.9153978819        0.2360307234        2.1182799523
 C         -1.0693133450       -0.8461371852        1.9382768944
 O         -0.2176165271       -0.9807715441        2.8401820638
 H          0.3008320558       -0.9581172034       -1.1688820460
 C          1.1993709768       -1.3311445384       -0.7000208974
 C          1.1142350869       -2.2895815862        0.2995936197
 C          2.2878946336       -2.7457145470        0.8886316143
 C          3.5166241802       -2.2585963016        0.4805462828
 C          3.5952045594       -1.2858347584       -0.4997655257
 C          2.4270371592       -0.8131527536       -1.0852643844
 N          2.4594704501        0.2135246802       -2.0526251146
 S          1.6366675518        1.6193619111       -1.6495756537
 O          0.2204088891        1.3733404666       -1.6237624262
 O          2.1040527435        2.6088164961       -2.5960408634
 C          2.2309672559        2.0057472759       -0.0145727908
 C          3.3885092298        2.7464443734        0.1265740388
 C          3.8933489158        2.9621419754        1.3985730738
 C          3.2457934708        2.4229361521        2.5008220287
 C          2.0858670786        1.6804169794        2.3426100884
 C          1.5719353048        1.4715569692        1.0731793277
 H          0.6711166445        0.8979624760        0.9204892030
 H          1.5739290242        1.2434501678        3.1859168862
 H          3.6450483845        2.5815997219        3.4901301549
 H          4.7923397679        3.5431330805        1.5273953654
 H          3.8585755901        3.1476923621       -0.7568806227
 H          3.3940022200        0.4498046975       -2.3580818849
 H          4.5506993225       -0.8876651742       -0.8060355272
 H          4.4203876070       -2.6245033753        0.9427783912
 H          2.2307585877       -3.4744736244        1.6834992346
 C         -0.2316306927       -2.8095919566        0.7397144376
 H         -0.1128136796       -3.1722126072        1.7747621810
 C         -0.7009480644       -3.9888268487       -0.0985001170
 C         -0.2061973992       -4.2503775406       -1.4858191348
 C          0.2165949275       -5.1460032502       -0.3624982470
 H         -0.1915386999       -6.1442253060       -0.3165032962
 H          1.2373430746       -5.0678962981       -0.0210522529
 H         -0.9181623990       -4.6142610242       -2.2105079291
 H          0.5212836704       -3.5693136925       -1.9006808941
 H         -1.7413786334       -4.2289044694        0.0913789597
 O         -2.3831564524       -2.0462414488       -1.2223626756
