  62
        -98.94453078
 C         -2.5974577504       -1.2275182489        0.1425566902
 C         -2.6348639702       -0.2828292098       -0.9114555105
 C         -3.4451758498        0.9207780107       -0.6696524214
 C         -4.0994515697        1.0612213718        0.4966486185
 C         -4.9128457993        2.2592394823        0.8898052976
 C         -4.0588291590        3.2913846127        1.6391950967
 C         -2.7394557789        3.6282459817        0.9436280964
 H         -2.0919170892        2.7475328815        0.9497314871
 H         -2.2401829587        4.3912921820        1.5449838458
 C         -2.8908432688        4.1345162406       -0.4976394540
 H         -2.2356724686        4.9974477303       -0.6345536247
 H         -3.9140249387        4.4724454608       -0.6667673542
 C         -2.5097402792        3.1145326997       -1.5724210732
 H         -1.5202423193        2.7037479396       -1.3503812129
 H         -2.4358327891        3.6403635889       -2.5284201036
 C         -3.4904644095        1.9501946498       -1.7637179522
 H         -3.2094144397        1.4266134990       -2.6821419218
 H         -4.5029367694        2.3396548300       -1.8865399025
 H         -3.8292510191        2.8969973934        2.6316461370
 H         -4.6479527187        4.2018694429        1.7625454761
 H         -5.3435649992        2.7081818518       -0.0029847427
 H         -5.7199016094        1.9258946931        1.5443439479
 O         -4.0549162500        0.1281515425        1.4802547992
 C         -3.2973514803       -1.0199067178        1.3365101801
 O         -3.3332499505       -1.7797510370        2.3245907207
 H         -0.0428381205       -1.1620279010       -1.4919420899
 C          0.4192981395       -1.4865871604       -0.5715007197
 C         -0.3298158007       -2.2052319295        0.3494597609
 C          0.2723608692       -2.5827348987        1.5441860412
 C          1.5892344793       -2.2473641289        1.8064628208
 C          2.3283513095       -1.5212730099        0.8893748502
 C          1.7315684796       -1.1306234706       -0.3017169300
 N          2.4655261998       -0.3598197516       -1.2282746707
 S          2.9993631503        1.1318970887       -0.6582295319
 O          2.1423268705        1.6334820998        0.3926386778
 O          3.1391736505        1.9681011878       -1.8305646525
 C          4.6182455902        0.7720912987       -0.0098714117
 C          5.5599520200        0.2471173378       -0.8733724113
 C          6.8255744299       -0.0406033522       -0.3883110311
 C          7.1271676100        0.2027461987        0.9435839387
 C          6.1717733402        0.7335837897        1.7966647583
 C          4.9031070903        1.0225547397        1.3179453481
 H          4.1258818505        1.4302699804        1.9446358079
 H          6.4079812703        0.9223273404        2.8315791082
 H          8.1127573700       -0.0226380213        1.3191917288
 H          7.5713213498       -0.4531256730       -1.0485106808
 H          5.2843303899        0.0782005371       -1.9008798511
 H          1.9651858398       -0.2249768021       -2.0967698808
 H          3.3511045696       -1.2477766300        1.0921430700
 H          2.0432620493       -2.5488956683        2.7381008911
 H         -0.3083107409       -3.1242071180        2.2771283916
 C         -1.7840192008       -2.5139251292        0.0841364512
 H         -2.1519124410       -3.1325256585        0.9132836717
 C         -1.9763494511       -3.2832785002       -1.2076143882
 C         -1.6485726916       -4.7447238403       -1.2355417471
 C         -3.0769449314       -4.2953023799       -1.2966264973
 H         -3.6120023315       -4.3927146705       -2.2293063672
 H         -3.6955907114       -4.4383416791       -0.4224214572
 H         -1.2989257916       -5.1956077297       -0.3191721167
 H         -1.2000278317       -5.1544876112       -2.1273712568
 H         -1.7677129710       -2.7015508010       -2.0953460587
 O         -2.0349608903       -0.4128406908       -2.0133997804
