  62
        -98.94468177
 C         -1.8061274196       -0.5621583199       -0.4602956695
 C         -2.8769382799       -1.3129651594        0.0819153807
 C         -4.2237053097       -0.8185149992       -0.2236751297
 C         -4.3740206194        0.2754604105       -0.9925102802
 C         -5.6826799492        0.8857695407       -1.4160150206
 C         -6.2936256591        1.8363975312       -0.3773715511
 C         -6.8826079294        1.1565436919        0.8593135692
 H         -7.4644423792        1.9108758123        1.3927474388
 H         -7.5740104295        0.3733077919        0.5469400994
 C         -5.8363948896        0.5709789121        1.8179306295
 H         -4.8581444795        1.0044091517        1.5970051695
 H         -6.0859519897        0.8508256326        2.8438992194
 C         -5.7235225100       -0.9530852280        1.7786391502
 H         -4.9313496901       -1.2560815079        2.4679196604
 H         -6.6588479601       -1.3987104576        2.1243033403
 C         -5.3916148500       -1.5263239986        0.3946109505
 H         -6.2628142199       -1.4646132387       -0.2570375697
 H         -5.1174163202       -2.5771376887        0.5152611909
 H         -5.5297914089        2.5546327612       -0.0702708413
 H         -7.0915585789        2.3927473712       -0.8746656614
 H         -5.4792357789        1.4547581602       -2.3257878808
 H         -6.3961992593        0.0959413207       -1.6525803303
 O         -3.3184731091        0.9621811500       -1.5056483704
 C         -2.0116776793        0.5763848898       -1.2392941400
 O         -1.1474170790        1.3138226294       -1.7501827203
 O         -2.7141314002       -2.3447214791        0.7864524111
 C         -0.3822577298       -1.0127996001       -0.1823959892
 C          0.3653685704        0.0846149800        0.5309442304
 C         -0.1559945896        0.5654305007        1.7308776502
 C          0.4642932006        1.5940614308        2.4106270998
 C          1.6256106208        2.1604496703        1.9137323097
 C          2.1577815508        1.6846640897        0.7220015000
 C          1.5351198206        0.6439666995        0.0430442503
 H          1.9592469006        0.3089860090       -0.8883124095
 N          3.3261641210        2.2489886292        0.1964317899
 S          4.4105594709        1.3499730985       -0.6886552496
 O          5.6513373110        2.0896507183       -0.5867422398
 O          3.9263598710        1.1267348381       -2.0277388996
 C          4.5710340504       -0.2097585811        0.1652238911
 C          4.6016614202       -1.3741525915       -0.5737656784
 C          4.7494807498       -2.5857178712        0.0824951721
 C          4.8634548597       -2.6112748607        1.4633830421
 C          4.8362289599       -1.4324735904        2.1927301516
 C          4.6921937902       -0.2185527306        1.5408119611
 H          4.6739439004        0.7107823696        2.0858475207
 H          4.9260186597       -1.4553886399        3.2668184616
 H          4.9744439794       -3.5549691405        1.9737789325
 H          4.7715936597       -3.5023211915       -0.4849429275
 H          4.5040464803       -1.3069826719       -1.6453109785
 H          3.7734421411        2.9470882593        0.7705351196
 H          2.1079339109        2.9726090204        2.4359582994
 H          0.0436697505        1.9599078513        3.3351296296
 H         -1.0657567898        0.1246987810        2.1151711503
 H         -0.4777704001       -1.8669066798        0.5041982212
 C          0.2779667503       -1.4882571608       -1.4580419089
 C          1.3734326400       -2.5087055510       -1.4032586683
 C          0.0201621400       -2.8898070509       -1.9217083583
 H         -0.0978363099       -3.0694170014       -2.9798596383
 H         -0.6126110502       -3.5071614405       -1.3009918681
 H          2.1852555701       -2.4242004115       -2.1091808783
 H          1.6688453598       -2.8734309807       -0.4312684481
 H          0.3361818705       -0.7146731411       -2.2161721892
