  62
        -98.93748564
 C          1.1351915519        1.4770169110        0.6431682290
 C          2.0230799049        1.3570293927       -0.4524763821
 C          3.0882527432        0.3459149037       -0.3126716483
 C          3.1238668291       -0.4270145741        0.7874447430
 C          4.1338527562       -1.5040010462        1.0710712630
 C          3.8480169773       -2.7705553952        0.2398064428
 C          4.9270588089       -3.1033422758       -0.7898828658
 H          5.7997007022       -3.5111328878       -0.2754554042
 H          4.5301041048       -3.8880761235       -1.4375158051
 C          5.3956409561       -1.9302725092       -1.6558033452
 H          5.9351227370       -2.3547680749       -2.5051057682
 H          6.1164734440       -1.3286023312       -1.1000516176
 C          4.2901544839       -1.0065932004       -2.1843824189
 H          4.5405734019       -0.7322160385       -3.2112606533
 H          3.3351712172       -1.5307707538       -2.2234376667
 C          4.1263108130        0.3087886320       -1.4012000218
 H          5.0937770217        0.6043438660       -0.9844709841
 H          3.8210059424        1.0928525232       -2.1008143296
 H          2.8931915318       -2.6432611033       -0.2716000536
 H          3.7401960151       -3.6280091134        0.9059793758
 H          5.1318580968       -1.1273106376        0.8553077092
 H          4.0726586925       -1.7273811766        2.1365813795
 O          2.1901512000       -0.3475215038        1.7718065453
 C          1.1857775018        0.6009496364        1.7305510899
 O          0.4098303400        0.5717708486        2.7065004677
 H         -2.0358840985        1.0676821595        1.4121392917
 C         -2.1027464870        1.3511106953        0.3693493030
 C         -1.0993228032        2.1395376617       -0.1807976284
 C         -1.1765795873        2.4703388050       -1.5282275755
 C         -2.2370924401        2.0260692373       -2.2994450237
 C         -3.2396293263        1.2484267434       -1.7468632651
 C         -3.1649112206        0.9059870879       -0.4035722146
 N         -4.1695068385        0.0762629806        0.1514274077
 S         -4.0759590074       -1.5288742559       -0.3210511872
 O         -4.2101161201       -1.5953646093       -1.7529594238
 O         -5.0725863034       -2.2318877243        0.4527437483
 C         -2.4413055119       -2.0383693034        0.1757121616
 C         -1.3623118669       -1.6542094165       -0.5952726264
 C         -0.0853955265       -1.9583331765       -0.1534293819
 C          0.0913162361       -2.6407479844        1.0398164285
 C         -1.0030310614       -3.0214679543        1.8002237293
 C         -2.2823527575       -2.7093316012        1.3715428375
 H         -3.1605485008       -2.9786165506        1.9365184919
 H         -0.8589235149       -3.5474500968        2.7301783527
 H          1.0874386230       -2.8654718779        1.3864145820
 H          0.7655116439       -1.6404280065       -0.7374779929
 H         -1.5297957382       -1.1293500103       -1.5221117620
 H         -4.1907745741        0.1101678640        1.1619865810
 H         -4.0624946114        0.8805303280       -2.3376079865
 H         -2.2833744620        2.2886992019       -3.3454870560
 H         -0.3886824635        3.0532170065       -1.9763383770
 C          0.0557274340        2.5488041326        0.6989336523
 H         -0.3042383044        2.5467636878        1.7366426653
 C          0.5917491589        3.9295399202        0.3819829502
 C         -0.2286796859        5.1274791326        0.7507997047
 C          1.0284224095        4.8184763740        1.5057020925
 H          1.8900069609        5.4517522991        1.3560691275
 H          0.9389159989        4.4361861788        2.5123634841
 H         -0.2330253143        5.9754434572        0.0834201372
 H         -1.1726413792        4.9527444771        1.2449761856
 H          1.1684653421        3.9738705349       -0.5320093889
 O          1.9611612765        2.0637141744       -1.4916573615
