  62
        -98.94359546
 C         -1.8665786959       -0.8792929624       -0.4121416252
 C         -3.1965170163       -1.2913407804       -0.1609534417
 C         -4.2379225127       -0.2839880919       -0.4039205947
 C         -3.8829358515        0.9336594231       -0.8538393161
 C         -4.8348166117        2.0679325154       -1.0981013846
 C         -4.9835539403        2.9471042236        0.1513280561
 C         -5.2617692363        2.1583549023        1.4308885718
 H         -4.3878616780        1.5481510666        1.6707943912
 H         -5.3788062375        2.8820975313        2.2404862189
 C         -6.5045169966        1.2595627831        1.3649405382
 H         -7.0746959507        1.3825998646        2.2882176335
 H         -7.1476383878        1.5763797937        0.5430694326
 C         -6.2019850151       -0.2336327522        1.2249938965
 H         -7.1278702827       -0.7859411990        1.4066999835
 H         -5.4862620519       -0.5356455074        1.9940180307
 C         -5.6626837958       -0.6821108062       -0.1392955852
 H         -5.6766347323       -1.7759314768       -0.1579353133
 H         -6.3192118947       -0.3174993594       -0.9320168104
 H         -5.7920945120        3.6596553426       -0.0216832556
 H         -4.0581054939        3.5105765028        0.2913657981
 H         -5.8033352118        1.6668212742       -1.3903047649
 H         -4.4423768131        2.6764170933       -1.9145910818
 O         -2.5959833383        1.2885912582       -1.0963558022
 C         -1.5534302719        0.4000078600       -0.8718609186
 O         -0.4247489685        0.8606417914       -1.1178481201
 O         -3.4972313612       -2.4450597417        0.2497448279
 C         -0.7357858117       -1.8641554494       -0.1809860688
 C          0.2631155406       -1.3102580017        0.8047450395
 C         -0.1975611884       -0.6727267917        1.9537781192
 C          0.6847257494       -0.1409989044        2.8743370859
 C          2.0512217321       -0.2437029429        2.6788721448
 C          2.5229202490       -0.8888199970        1.5446224496
 C          1.6327494525       -1.4206664090        0.6180703296
 H          2.0194693116       -1.9174642641       -0.2583079308
 N          3.9157796045       -1.0085987500        1.3528381988
 S          4.8060137209        0.3848168631        1.0875528488
 O          6.1856495853       -0.0403614078        1.0223741582
 O          4.4797291621        1.3491513335        2.1058408658
 C          4.2882696215        0.9666340078       -0.5178171890
 C          5.1583465710        0.8622314456       -1.5857498020
 C          4.7297000699        1.2631895023       -2.8405809967
 C          3.4382857204        1.7408508481       -3.0089407603
 C          2.5744365747        1.8333028350       -1.9284694208
 C          3.0031886514        1.4482807321       -0.6680953757
 H          2.3436655133        1.5103787138        0.1823392653
 H          1.5577574003        2.1709694977       -2.0497725392
 H          3.0995548698        2.0409994029       -3.9882940842
 H          5.3983868270        1.1949193067       -3.6837559038
 H          6.1489610850        0.4749981981       -1.4095592032
 H          4.1659130712       -1.6952951633        0.6544226363
 H          2.7535271902        0.1809212509        3.3769622516
 H          0.3071609901        0.3562593311        3.7553391099
 H         -1.2644263812       -0.5920052993        2.1130672467
 H         -1.2077977018       -2.7494044129        0.2715858328
 C         -0.1180790330       -2.2664364019       -1.5047172025
 C          0.4713160387       -3.6330374841       -1.6847267820
 C         -0.8239545232       -3.2814909275       -2.3509950934
 H         -0.8348836238       -3.1434906547       -3.4216816698
 H         -1.7357399878       -3.7060796260       -1.9568799089
 H          1.3500658268       -3.7397450864       -2.3031948283
 H          0.4392707866       -4.3076563597       -0.8423864898
 H          0.3533863905       -1.4320379081       -2.0126672772
