  62
        -98.94259397
 C          1.2070634640        1.6277562345        0.1937008894
 C          1.6133140019        0.6567604354        1.1363845301
 C          2.8423299569       -0.0959842435        0.8325075382
 C          3.4906825047        0.1445202361       -0.3224932373
 C          4.7740232403       -0.4264145422       -0.8901295974
 C          5.4570188066       -1.6171304361       -0.2246252556
 C          4.7097734344       -2.9435590814       -0.3761989593
 H          4.8157087364       -3.2817294210       -1.4101314641
 H          5.1878142134       -3.6858073984        0.2665914250
 C          3.2158621811       -2.9050639243       -0.0636882993
 H          2.7097967340       -2.2019857075       -0.7289185010
 H          2.7974362933       -3.8916757204       -0.2823775133
 C          2.8509372867       -2.5636690771        1.3784565865
 H          1.7650601542       -2.6677897348        1.4648158414
 H          3.3142095886       -3.2827403557        2.0578372401
 C          3.2272746537       -1.1459364637        1.8350922853
 H          2.6602331889       -0.9240917921        2.7443387491
 H          4.2834985310       -1.0820674227        2.0843037345
 H          5.6516159953       -1.3988889793        0.8213762391
 H          6.4302729199       -1.7313890103       -0.7095472033
 H          4.5568818716       -0.6745527043       -1.9342306590
 H          5.4804515356        0.4107789015       -0.9142800787
 O          3.0433219579        1.0741723739       -1.2181177224
 C          1.8903217006        1.8120906113       -1.0059617451
 O          1.5949039096        2.5811101114       -1.9405738235
 H         -0.5016763626       -0.0333235759       -0.5193500708
 C         -1.2277454363        0.6686553089       -0.8976646052
 C         -1.1395291874        2.0060788583       -0.5382897382
 C         -2.0676389521        2.8943277327       -1.0677454001
 C         -3.0443314074        2.4456437091       -1.9404499476
 C         -3.1356268412        1.1087114399       -2.2836765090
 C         -2.2143434272        0.2114871969       -1.7553366362
 N         -2.2599615370       -1.1545756411       -2.0696987436
 S         -1.8468508099       -2.2853039846       -0.9072598612
 O         -0.4201895424       -2.3111808217       -0.7107840849
 O         -2.4384908731       -3.5162279197       -1.3888402071
 C         -2.7002183673       -1.7508963522        0.5655859318
 C         -2.0202358091       -1.1850355407        1.6238604816
 C         -2.7435595403       -0.7383011522        2.7195768434
 C         -4.1231344165       -0.8637738276        2.7403149540
 C         -4.7917139392       -1.4428662775        1.6718132727
 C         -4.0758503075       -1.8879789758        0.5736833298
 H         -4.5562063219       -2.3547034755       -0.2710024902
 H         -5.8647207815       -1.5450019355        1.6911966604
 H         -4.6787513764       -0.5105476420        3.5946544767
 H         -2.2138112546       -0.2896341107        3.5449229084
 H         -0.9460783901       -1.0878350372        1.5920953502
 H         -3.0595847108       -1.4438139995       -2.6129067713
 H         -3.9019242094        0.7620701058       -2.9597597928
 H         -3.7525445702        3.1476904085       -2.3534856745
 H         -2.0212438016        3.9381410843       -0.8039095967
 C         -0.0677046494        2.4093745273        0.4463974187
 H         -0.4060921020        2.0952168908        1.4462672512
 C          0.2008931418        3.8992799135        0.4708254420
 C         -0.6098199059        4.8001109955        1.3528644723
 C          0.8173593611        4.5014981849        1.6970251354
 H          1.5553266923        5.2797689307        1.5736076458
 H          1.0172636173        3.8396057575        2.5271491675
 H         -0.8517549474        5.7896243803        0.9953168689
 H         -1.3801786742        4.3470816601        1.9583528841
 H          0.5280425594        4.2782218730       -0.4905533062
 O          0.9735575807        0.4271702623        2.1993101989
