  62
        -98.94417068
 C         -2.6400233254       -1.0946067621        0.1923852397
 C         -2.7416634531       -0.2882906992       -0.9672625984
 C         -3.5543543903        0.9291811232       -0.8290290638
 C         -4.1439569689        1.1994544756        0.3498804131
 C         -4.9467315680        2.4329877630        0.6443355914
 C         -4.0593308212        3.5494653153        1.2128144633
 C         -2.7878252131        3.8010653909        0.4019569434
 H         -2.2545306487        4.6253510596        0.8807616975
 H         -2.1430075082        2.9212513965        0.4673894660
 C         -3.0333059206        4.1385094299       -1.0754048274
 H         -2.4004912134        4.9848193504       -1.3504214544
 H         -4.0691091718        4.4491580785       -1.2163057128
 C         -2.7078054607        3.0032142999       -2.0479394385
 H         -2.7074539645        3.4137318332       -3.0610311192
 H         -1.7018859969        2.6248405501       -1.8479944207
 C         -3.6789904582        1.8159232105       -2.0359300982
 H         -4.7035975045        2.1763389830       -2.1463824622
 H         -3.4404226004        1.1840236343       -2.8963077456
 H         -3.7683266977        3.2766388063        2.2301239157
 H         -4.6480804051        4.4671062232        1.2633109215
 H         -5.4328112821        2.7702497954       -0.2689094098
 H         -5.7113896839        2.1788019362        1.3802414716
 O         -4.0288441584        0.3956335956        1.4390471247
 C         -3.2639154078       -0.7591293305        1.3927138764
 O         -3.2139401873       -1.3879053303        2.4706227941
 H         -0.3347502809       -0.3582862907        1.1099856816
 C          0.2331909134       -0.9474544279        0.3987683923
 C         -0.3765920483       -2.0356781776       -0.2136774142
 C          0.3701781688       -2.7936038683       -1.1057928256
 C          1.6816414030       -2.4523408163       -1.3890603880
 C          2.2761861619       -1.3557841888       -0.7932495362
 C          1.5436997844       -0.5986757507        0.1119819485
 N          2.1363169975        0.5239487255        0.7181644457
 S          3.6201429476        0.3150338382        1.4784563535
 O          3.7732408132       -1.0325476810        1.9763524481
 O          3.6929747436        1.3750275274        2.4604971751
 C          4.8102008396        0.6314467350        0.1929605523
 C          5.7867549329       -0.3044025546       -0.0862788575
 C          6.7101606776       -0.0314114284       -1.0836336100
 C          6.6408183776        1.1657502703       -1.7794903595
 C          5.6549282851        2.0959898404       -1.4850897868
 C          4.7299067262        1.8302723830       -0.4881745006
 H          3.9506533637        2.5267797364       -0.2269418613
 H          5.6037556156        3.0256514232       -2.0286493502
 H          7.3592476758        1.3754646037       -2.5561323937
 H          7.4776084098       -0.7528143461       -1.3137061828
 H          5.7969606302       -1.2240066595        0.4767242697
 H          1.5070974725        1.0391954872        1.3166999136
 H          3.2941973310       -1.0825542527       -1.0179497208
 H          2.2477495079       -3.0475005567       -2.0891152948
 H         -0.0758155610       -3.6506215449       -1.5828944722
 C         -1.8043557958       -2.3606676754        0.1567554854
 H         -1.8038533208       -2.7548265570        1.1843546049
 C         -2.4474481226       -3.3844348660       -0.7560391276
 C         -2.2871387975       -4.8489072679       -0.4828814311
 C         -3.6063988534       -4.1812553433       -0.2399586754
 H         -4.4259348110       -4.3941231890       -0.9097172876
 H         -3.9125835485       -4.0040640027        0.7812048244
 H         -2.2042011823       -5.5242092886       -1.3210970476
 H         -1.7002650476       -5.1366938164        0.3764763409
 H         -2.4863057299       -3.0541276209       -1.7875557353
 O         -2.1814826713       -0.5664861613       -2.0584742038
