  62
        -98.93223891
 C         -2.4143559212       -1.2729760679       -0.1849025132
 C         -2.1151991037       -0.0467940352       -0.8212365727
 C         -2.8518108870        1.1438794033       -0.3490797987
 C         -3.7475175488        1.0146251951        0.6450119406
 C         -4.5988588774        2.0725870985        1.3004105721
 C         -5.2764135981        3.0909049996        0.3705150335
 C         -4.6783521247        4.4953554408        0.4684769285
 H         -5.4304654190        5.2186801833        0.1457969643
 H         -4.4537896651        4.7044450686        1.5165102292
 C         -3.4241828504        4.7275746535       -0.3721977676
 H         -3.0225646166        5.7071716628       -0.1026829307
 H         -3.6997631661        4.7683126705       -1.4281966033
 C         -2.3196054782        3.6822438242       -0.2031198827
 H         -2.2116899778        3.4020883403        0.8444306781
 H         -1.3757502299        4.1418899744       -0.5045983007
 C         -2.5245914790        2.4268469926       -1.0643001204
 H         -3.2922424639        2.6144488791       -1.8205496271
 H         -1.6051772765        2.2082921377       -1.6159244933
 H         -5.2422376288        2.7343002988       -0.6576341386
 H         -6.3276786747        3.1527600342        0.6562260974
 H         -5.3566693939        1.5180988668        1.8587169931
 H         -3.9884627524        2.5950870670        2.0415095774
 O         -3.9919509818       -0.1854600380        1.2447520880
 C         -3.3425403373       -1.3396208490        0.8584258267
 O         -3.6773358161       -2.3540837691        1.5022532010
 H          0.4562879972       -1.1330956602       -1.1432295976
 C          0.6463853582       -1.8259171661       -0.3368637116
 C         -0.3757912089       -2.6592870812        0.0942788544
 C         -0.1264257764       -3.5196743734        1.1569861030
 C          1.1146685668       -3.5415447376        1.7694936753
 C          2.1298058939       -2.7052975602        1.3397862489
 C          1.8860804657       -1.8362587077        0.2845686329
 N          2.9071844158       -0.9612625795       -0.1588105819
 S          3.4172250329        0.1660148219        0.9959358283
 O          4.1260921733       -0.5364918222        2.0353039584
 O          2.3019442850        0.9813466410        1.4301677043
 C          4.5586232828        1.1369326507        0.0321573421
 C          4.1056904106        2.2794527378       -0.5990041679
 C          4.9901200091        3.0112897920       -1.3757855056
 C          6.3037366093        2.5876791902       -1.5100889178
 C          6.7430835555        1.4380426166       -0.8705845090
 C          5.8642387394        0.7024843297       -0.0915548425
 H          6.1613606539       -0.1921006386        0.4299232835
 H          7.7655169524        1.1133326853       -0.9765821021
 H          6.9891350705        3.1590335756       -2.1159640935
 H          4.6510757938        3.9062860431       -1.8723181690
 H          3.0778018532        2.5759367392       -0.4604132164
 H          2.5928835005       -0.4463273088       -0.9731710407
 H          3.0925267614       -2.6960838471        1.8239294238
 H          1.2928030516       -4.2141052115        2.5951462884
 H         -0.9215257674       -4.1576412996        1.5158031283
 C         -1.7435279610       -2.5922472007       -0.5426001004
 H         -2.3645105752       -3.3711846298       -0.0806006135
 C         -1.6857011055       -2.8492535000       -2.0353784443
 C         -1.4931018455       -4.2532621417       -2.5206908973
 C         -2.8173425003       -3.5740209523       -2.6968021673
 H         -3.1147783988       -3.2676666639       -3.6884248329
 H         -3.6407716152       -3.8904908540       -2.0729043935
 H         -1.4185702023       -5.0325125286       -1.7773149983
 H         -0.8787523030       -4.4165698828       -3.3926383387
 H         -1.2150441197       -2.0524440821       -2.5949970244
 O         -1.2723433762        0.0820972297       -1.7508710433
