  62
        -98.94691221
 C         -2.0563868709       -1.0570809788       -0.5185217309
 C         -1.4876633006        0.0638155414       -1.1694866503
 C         -2.1900951699        1.3431185616       -0.9869027391
 C         -3.2958135096        1.3929942016       -0.2244909088
 C         -4.0727802489        2.6379414318        0.0893589024
 C         -3.5711404581        3.2996058906        1.3800296927
 C         -2.0543315980        3.4860954098        1.4357783024
 H         -1.5656365485        2.5095216295        1.4872173815
 H         -1.8248853675        4.0023717590        2.3710561027
 C         -1.4652374580        4.2763226003        0.2590804228
 H         -0.7439362075        4.9966780497        0.6509698831
 H         -2.2525211678        4.8420731511       -0.2417982166
 C         -0.7218917787        3.4137547807       -0.7626610281
 H         -0.0217236489        2.7610110799       -0.2346160388
 H         -0.1369536086        4.0754547409       -1.4077969178
 C         -1.6092335294        2.5499465818       -1.6687338484
 H         -0.9851249999        2.1668342021       -2.4812969989
 H         -2.3999887093        3.1644909525       -2.1046647078
 H         -3.8693856682        2.6775446501        2.2272890723
 H         -4.0608355076        4.2701364808        1.4821249136
 H         -3.9874283388        3.3329424323       -0.7437583572
 H         -5.1217733790        2.3644154222        0.2169941725
 O         -3.8172137400        0.2983549014        0.3864233406
 C         -3.2069030606       -0.9373535188        0.2671677595
 O         -3.7856319109       -1.8518980990        0.8896125490
 H          0.7754814592       -0.9711916205       -0.1475918417
 C          0.6540065091       -1.7278305310        0.6086064578
 C         -0.4291060214       -2.5940710204        0.5449168575
 C         -0.5690881616       -3.5671917511        1.5266838568
 C          0.3466579287       -3.6583042523        2.5598265365
 C          1.3986350692       -2.7655980229        2.6445116168
 C          1.5483229594       -1.7866814622        1.6665429874
 N          2.6049397599       -0.8698911528        1.7400390378
 S          2.4270188106        0.7463914476        1.3124369890
 O          3.2094707612        1.4654928865        2.2992386793
 O          1.0389729307        1.1207632784        1.2087499397
 C          3.2797472701        0.8468639683       -0.2477225212
 C          4.6616080702        0.8706628275       -0.2011742416
 C          5.3757170898        0.9221466980       -1.3859700018
 C          4.6991412495        0.9482053693       -2.5967671415
 C          3.3142073494        0.9260192000       -2.6262865411
 C          2.5918608398        0.8743527795       -1.4427166609
 H          1.5128941298        0.8459250900       -1.4505773606
 H          2.7820395992        0.9440233909       -3.5640926610
 H          5.2532389492        0.9868415496       -3.5215312917
 H          6.4534812198        0.9409756975       -1.3634866721
 H          5.1453100204        0.8631193366        0.7615093183
 H          3.1732002301       -0.9576866337        2.5697635275
 H          2.0983946194       -2.8176369538        3.4651850065
 H          0.2288032685       -4.4182117428        3.3175802059
 H         -1.4139120219       -4.2391875106        1.4887539866
 C         -1.4542436716       -2.4546831991       -0.5563290121
 H         -2.2820173919       -3.1401910488       -0.3268912724
 C         -0.8697341523       -2.8468401584       -1.8982360926
 C         -0.7625062331       -4.3007746482       -2.2430801437
 C         -1.7656539129       -3.4355231672       -2.9441448027
 H         -1.5928950631       -3.1714954765       -3.9764547126
 H         -2.8098180729       -3.5598531969       -2.6951927325
 H         -1.1282484832       -5.0158339386       -1.5216773341
 H          0.1024092566       -4.6355432683       -2.7945875542
 H         -0.0800397720       -2.1893124186       -2.2347059523
 O         -0.4514990908        0.0260729414       -1.8845101906
