  62
        -98.93767617
 C          1.9345405999        1.0362779455        0.0658203914
 C          2.3135329163        0.0881145161        1.0428837717
 C          2.5381989077       -1.2827308327        0.5634815514
 C          2.3382583362       -1.5610087553       -0.7378084739
 C          2.5922499515       -2.8900407792       -1.3916346662
 C          4.1054248575       -3.0871368563       -1.6165479266
 C          4.7206832397       -4.2295421978       -0.8079129273
 H          4.4435477184       -5.1797555072       -1.2688662744
 H          5.8059561308       -4.1318790076       -0.8785398789
 C          4.3211166846       -4.2918692613        0.6693362143
 H          3.3323514546       -4.7431790326        0.7639673941
 H          5.0221534707       -4.9701520017        1.1602480656
 C          4.3220833195       -2.9547298173        1.4212101553
 H          4.7114990361       -3.1300768425        2.4260360914
 H          4.9924460838       -2.2425411752        0.9397953388
 C          2.9325006619       -2.3109289419        1.5878766658
 H          2.1668556412       -3.0912041086        1.6316036406
 H          2.9063678916       -1.7761345557        2.5422240046
 H          4.2933089834       -3.2764305944       -2.6743956703
 H          4.6107228036       -2.1510758512       -1.3699570347
 H          2.1874389147       -3.6859018888       -0.7701672005
 H          2.0603750894       -2.8878640015       -2.3433624393
 O          1.9549739714       -0.6256432550       -1.6453515108
 C          1.7306396572        0.6889478529       -1.2692278403
 O          1.3764481890        1.4385922293       -2.1996297752
 O          2.4585675969        0.3770367983        2.2633520161
 C          1.6571127271        2.4662932419        0.4909265977
 C          0.2327302536        2.8314501230        0.1512625436
 C         -0.1327406473        4.0513463108       -0.4029581427
 C         -1.4561285716        4.3080803343       -0.7177346995
 C         -2.4351034610        3.3576928571       -0.4974194268
 C         -2.0821324247        2.1410039586        0.0768316132
 C         -0.7615682450        1.8966463163        0.4118441728
 H         -0.4993898902        0.9456771144        0.8542486735
 N         -3.0556255285        1.1611022858        0.3439409950
 S         -2.6178177674       -0.4633068804        0.1976844763
 O         -1.9567746691       -0.8785062767        1.4107409221
 O         -1.8992955563       -0.6887425459       -1.0366992817
 C         -4.2378047788       -1.2063882838        0.1206523333
 C         -4.7672346126       -1.5638269506       -1.1047062686
 C         -6.0433550799       -2.1034956378       -1.1519682015
 C         -6.7654949518       -2.2716167078        0.0198870344
 C         -6.2205486756       -1.9083412896        1.2427008656
 C         -4.9448713160       -1.3697815617        1.2971509651
 H         -4.4753550085       -1.0802091977        2.2227210223
 H         -6.7838956489       -2.0424542092        2.1519283909
 H         -7.7585114771       -2.6905189951       -0.0199959226
 H         -6.4678731900       -2.3892396003       -2.1008376666
 H         -4.1650400360       -1.4196063965       -1.9876168022
 H         -3.9301821375        1.3454555524       -0.1295923319
 H         -3.4627226206        3.5511224723       -0.7650306720
 H         -1.7256133542        5.2566927900       -1.1567802990
 H          0.6203830366        4.7961347156       -0.6014807821
 H          1.7632254403        2.4729433271        1.5866256580
 C          2.6822532040        3.4081706700       -0.1057578756
 C          3.0780274644        4.6581914422        0.6205556965
 C          4.0324970936        3.5064851838        0.5365406554
 H          4.9003034836        3.5971947079       -0.0992596599
 H          4.2008169547        2.9129222813        1.4233636547
 H          3.2946521619        5.5434931001        0.0419863903
 H          2.6054265776        4.8542561560        1.5710453072
 H          2.6391508347        3.4323081220       -1.1890523801
