  62
        -98.94416501
 C          2.2422905685        0.8481851760        0.4238068309
 C          2.4625799724        0.0273978328       -0.7090335121
 C          3.3220521241       -1.1426474879       -0.4869344294
 C          3.8039555256       -1.3968112967        0.7431794436
 C          4.6745593546       -2.5614532619        1.1304901545
 C          6.1687314530       -2.3416242427        0.8562606221
 C          6.5730898275       -2.3851887814       -0.6179024301
 H          7.6632105852       -2.4368116887       -0.6489655179
 H          6.1910020477       -3.3004094031       -1.0711044462
 C          6.1130560381       -1.1712234959       -1.4371997463
 H          5.8412260894       -0.3573571120       -0.7610430652
 H          6.9412189183       -0.8125121167       -2.0524898302
 C          4.9382101606       -1.4478938157       -2.3754116992
 H          5.2415172961       -2.1655799101       -3.1407754229
 H          4.6720268010       -0.5135752399       -2.8759219294
 C          3.6828540473       -1.9832442814       -1.6742921197
 H          2.8488002881       -1.9356311312       -2.3786907329
 H          3.8316085711       -3.0209218729       -1.3764040474
 H          6.7149668011       -3.1266384558        1.3843084312
 H          6.4654949786       -1.3828678991        1.2878491425
 H          4.3367057174       -3.4600327968        0.6133522818
 H          4.5395553534       -2.7068521388        2.2045847136
 O          3.5259159525       -0.6086590845        1.8172582991
 C          2.7566748394        0.5363991685        1.6811575339
 O          2.5936320424        1.1753986612        2.7420549292
 O          1.9673271659        0.2546150456       -1.8423008355
 C          1.3954369445        2.1002759864        0.2938841039
 C          0.0016964217        1.7505267403       -0.1710458956
 C         -0.6885409252        2.4861421191       -1.1253380215
 C         -1.9747945465        2.1282702187       -1.4913990005
 C         -2.6000518278        1.0373115950       -0.9171071440
 C         -1.9242352370        0.3019150196        0.0480165594
 C         -0.6388923761        0.6663831241        0.4165373090
 H         -0.1160287447        0.0939948708        1.1743655868
 N         -2.5518632358       -0.8136013510        0.6348707398
 S         -4.0439004702       -0.5606654931        1.3677070941
 O         -4.1644389216        0.7909633709        1.8641850875
 O         -4.1699738365       -1.6188115351        2.3464342327
 C         -5.2178011282       -0.8367987359        0.0581728045
 C         -6.1220645392        0.1523638530       -0.2756076155
 C         -7.0316791033       -0.0878868146       -1.2938352242
 C         -7.0211090205       -1.3062723665       -1.9554597741
 C         -6.1077941546       -2.2901138829       -1.6061948308
 C         -5.1965474497       -2.0569626144       -0.5886494692
 H         -4.4731536166       -2.7949027210       -0.2841724495
 H         -6.1024607486       -3.2362050484       -2.1231326166
 H         -7.7288406648       -1.4907404862       -2.7481603053
 H         -7.7424529748        0.6754795452       -1.5667473652
 H         -6.0881965054        1.0858214667        0.2630818260
 H         -1.9468561970       -1.3332882897        1.2545601084
 H         -3.5979434106        0.7505719724       -1.2059364097
 H         -2.4961619797        2.7058763902       -2.2392534077
 H         -0.2181652078        3.3394704794       -1.5854425107
 H          1.3144907846        2.5200643600        1.3081109185
 C          2.0936777652        3.1079683026       -0.5963369456
 C          1.9109496297        4.5772746591       -0.3673194987
 C          3.2132350143        3.9213229684       -0.0222251277
 H          4.0750754731        4.1232968639       -0.6403713431
 H          3.4509336362        3.7688171699        1.0210149539
 H          1.8820053634        5.2336127374       -1.2239875589
 H          1.2674523575        4.8812103845        0.4446080276
 H          2.2025963474        2.7553624994       -1.6154189253
