  62
        -98.93587383
 C         -2.7445813368       -1.1294662489       -0.2259373291
 C         -2.5058534151       -0.0087419044       -1.0587291537
 C         -3.3929232467        1.1476938964       -0.8491677067
 C         -4.3551586672        1.0884339485        0.0881307357
 C         -5.2867277892        2.2113633997        0.4389749673
 C         -4.7125310986        3.0786030634        1.5679728178
 C         -3.2650609581        3.5128123391        1.3375100896
 H         -2.9776504763        4.1456982969        2.1798461778
 H         -2.6201469193        2.6312033960        1.3642568452
 C         -3.0320427863        4.2724095483        0.0239861685
 H         -2.4017762642        5.1402696727        0.2288290257
 H         -3.9814313267        4.6454564085       -0.3616332164
 C         -2.3287248549        3.4580739642       -1.0634788241
 H         -1.4237739751        3.0041077256       -0.6516012309
 H         -2.0193172281        4.1447689933       -1.8558993923
 C         -3.1676404633        2.3533224483       -1.7185572330
 H         -4.1197821698        2.7662705409       -2.0575076054
 H         -2.6183350723        1.9934515261       -2.5935784663
 H         -4.7545706021        2.5077053388        2.4984169565
 H         -5.3456754373        3.9604344316        1.6813285005
 H         -6.2334524738        1.7807755610        0.7693176991
 H         -5.4645848034        2.8191317049       -0.4460698060
 O         -4.5588574362       -0.0052581484        0.8655706840
 C         -3.7629435823       -1.1283742477        0.7331877169
 O         -4.0603099711       -2.0579262683        1.5096137565
 O         -1.6046656067        0.0486206590       -1.9363579855
 C         -1.9392833791       -2.4171460483       -0.3106765347
 C         -0.6581227663       -2.3133082961        0.4759710180
 C         -0.3471439619       -3.2397235471        1.4636057057
 C          0.8380872954       -3.1418249013        2.1723075841
 C          1.7360597624       -2.1223822486        1.9112528068
 C          1.4350259368       -1.1925210352        0.9242924259
 C          0.2450378066       -1.2907117133        0.2180598947
 H          0.0149974689       -0.5696719672       -0.5532740470
 N          2.3396816942       -0.1391134242        0.6484173672
 S          3.8457197373       -0.6128604163        0.0387848106
 O          3.6923732972       -1.1797979150       -1.2845283979
 O          4.4928712611       -1.4522645806        1.0138422105
 C          4.6756824236        0.9598352855       -0.0538635849
 C          5.2005503696        1.4942477657        1.1070675177
 C          5.8263724626        2.7291559565        1.0521267822
 C          5.9147865760        3.4055677358       -0.1556926520
 C          5.3825575161        2.8561979815       -1.3122123598
 C          4.7542655071        1.6214339136       -1.2637720059
 H          4.3326715560        1.1537702691       -2.1393343859
 H          5.4539397657        3.3833900479       -2.2499859928
 H          6.4034503503        4.3662348599       -0.1966871119
 H          6.2428764153        3.1593558662        1.9485919948
 H          5.1147892730        0.9291073860        2.0202489706
 H          1.9331337081        0.5067936408       -0.0180522364
 H          2.6688688431       -2.0478016903        2.4449715219
 H          1.0659100321       -3.8679405192        2.9380384946
 H         -1.0460390190       -4.0348105942        1.6802005141
 H         -2.5677172210       -3.1758219398        0.1813317888
 C         -1.7218437068       -2.8780503012       -1.7475657786
 C         -0.3847622142       -2.9546122404       -2.4162647902
 C         -1.0908732418       -4.2126345822       -2.0150297826
 H         -1.5117353353       -4.8427687600       -2.7837432985
 H         -0.6981926498       -4.7524966215       -1.1660990956
 H         -0.3373202099       -2.6960480895       -3.4634357758
 H          0.4956443185       -2.6636647948       -1.8636435807
 H         -2.5548100822       -2.6025434636       -2.3868149898
