  62
        -98.93214834
 C         -2.5182506897       -1.1329053920        0.5020801542
 C         -3.3822339606       -0.8301595224       -0.5769855187
 C         -4.5475878179        0.0234999756       -0.2647779050
 C         -4.7195603346        0.4907229105        0.9847079555
 C         -5.8127601487        1.3455510887        1.5916210352
 C         -6.7984887414        2.1013962810        0.7043543013
 C         -6.1831483560        3.2362294861       -0.1138402211
 H         -6.9531165858        3.6336593215       -0.7787613616
 H         -5.8884489501        4.0366886762        0.5694768539
 C         -4.9559739709        2.8630587362       -0.9418097709
 H         -4.6215798752        3.7619152720       -1.4669626173
 H         -4.1438538830        2.5586626610       -0.2782966072
 C         -5.1793513111        1.7712540865       -1.9862098947
 H         -4.2792865085        1.7186715840       -2.6045150429
 H         -6.0139320045        2.0467803630       -2.6338733820
 C         -5.4377029301        0.3618133253       -1.4261986975
 H         -6.4832052838        0.2265677597       -1.1600684648
 H         -5.2028623536       -0.3608671703       -2.2131295638
 H         -7.5422080920        2.5432096211        1.3732226632
 H         -7.3301033998        1.4098036469        0.0574252384
 H         -5.3017233075        2.0583181700        2.2467180980
 H         -6.3809230966        0.6777144105        2.2487089129
 O         -3.8506575264        0.1788560883        1.9920586589
 C         -2.7470196131       -0.6237049089        1.7815879750
 O         -2.0530266170       -0.8165334030        2.8011083824
 O         -3.2163777941       -1.2451080992       -1.7516999025
 C         -1.2814958581       -2.0054374765        0.3636300492
 C         -0.0909518627       -1.1738305305       -0.0393523956
 C         -0.1250504337       -0.3609926239       -1.1683994348
 C          0.9788029505        0.3937570711       -1.5205331347
 C          2.1321590247        0.3608759289       -0.7557482002
 C          2.1760423864       -0.4438936472        0.3742074797
 C          1.0678261335       -1.2064480963        0.7219658885
 H          1.1019248021       -1.8237015015        1.6101151062
 N          3.3373220175       -0.4670818800        1.1636387440
 S          4.8168117704       -0.7161119949        0.4097190034
 O          4.6634611780       -1.4821479306       -0.8049610471
 O          5.6673899459       -1.2884202901        1.4299993801
 C          5.3889348230        0.9265161524        0.0312608115
 C          5.5210240752        1.8254568682        1.0714192545
 C          5.9719062344        3.1062654834        0.7954125691
 C          6.2840116257        3.4635752651       -0.5080082931
 C          6.1498388286        2.5482291522       -1.5406380034
 C          5.6985400760        1.2654141883       -1.2712771267
 H          5.5752789837        0.5219310171       -2.0427571817
 H          6.3939600360        2.8278016359       -2.5529488108
 H          6.6343994544        4.4614014276       -0.7199623591
 H          6.0779890194        3.8207856054        1.5957880013
 H          5.2721176393        1.5075186303        2.0701971630
 H          3.2557007650       -1.0320499188        1.9964416241
 H          2.9929093067        0.9505918853       -1.0255930903
 H          0.9403940340        1.0185928709       -2.4000167940
 H         -1.0238008188       -0.3334877758       -1.7655782366
 H         -1.0882783120       -2.3857406281        1.3795715570
 C         -1.4999500528       -3.2175375510       -0.5320637155
 C         -0.8368894984       -3.4097334787       -1.8593021991
 C         -0.4078179570       -4.2350675371       -0.6860906398
 H         -0.6659752147       -5.2829565700       -0.6613655153
 H          0.5505471218       -4.0063477926       -0.2426353351
 H         -1.4156971668       -3.8763135220       -2.6416077129
 H         -0.1635126204       -2.6459520902       -2.2144952840
 H         -2.5101068905       -3.6042396709       -0.4441818013
