  62
        -98.94274173
 C         -0.9994638320       -1.2567785610       -0.4820174288
 C         -2.0012549101       -1.5152496252        0.4894225478
 C         -2.9392478638       -0.4234609800        0.7664525647
 C         -2.7942284534        0.7524094933        0.1296742915
 C         -3.6463877451        1.9764843769        0.3270779011
 C         -4.9462371751        1.9724595255       -0.4891075841
 C         -6.0230795686        1.0062053500        0.0059659163
 H         -6.1941083505        1.1681771716        1.0706249656
 H         -6.9480147688        1.2620534715       -0.5148215216
 C         -5.7089485223       -0.4749666006       -0.2468961393
 H         -4.9183426988       -0.5572337196       -0.9963410252
 H         -6.5917198617       -0.9699273742       -0.6581941675
 C         -5.2909249131       -1.2562380119        0.9989121700
 H         -5.0566832061       -2.2807205451        0.6983588104
 H         -6.1242741191       -1.2951923638        1.7040512704
 C         -4.0650014257       -0.6827537455        1.7216433864
 H         -4.3344512119        0.2312380786        2.2503702340
 H         -3.7195661836       -1.4208395685        2.4495838079
 H         -4.7046978307        1.7456307202       -1.5299985932
 H         -5.3555841074        2.9847495414       -0.4557070171
 H         -3.0424764216        2.8267756218        0.0064562253
 H         -3.8809806147        2.0923095792        1.3853671172
 O         -1.8136779598        0.9698530906       -0.7831777296
 C         -0.9007966598       -0.0227757588       -1.1277402381
 O         -0.0896487546        0.3354099765       -1.9996849429
 O         -2.1046544860       -2.6153494814        1.0961707315
 C         -0.0114170175       -2.3805232514       -0.7389682960
 C          1.1446972944       -2.2840070777        0.2240042080
 C          1.5802121003       -3.3949226729        0.9368718089
 C          2.6348408454       -3.2889089632        1.8262722033
 C          3.2790314053       -2.0791409912        2.0125366266
 C          2.8480737551       -0.9611130053        1.3070230468
 C          1.7825315581       -1.0685631539        0.4260233141
 H          1.4537762467       -0.1976312787       -0.1189576890
 N          3.4530971098        0.2893424229        1.4908374010
 S          3.6234975475        1.3262496706        0.1867369223
 O          3.8986080185        0.5984229172       -1.0295841125
 O          4.6568546631        2.2522699926        0.6064393585
 C          2.0894363506        2.2201608911        0.0818095051
 C          1.4004289927        2.5140039874        1.2418528054
 C          0.2501611051        3.2810303415        1.1586462414
 C         -0.1811004973        3.7482534077       -0.0734703821
 C          0.5194919079        3.4410190824       -1.2279026153
 C          1.6665953689        2.6677116145       -1.1527480539
 H          2.2267224555        2.3880448319       -2.0304115723
 H          0.1728316253        3.7876682068       -2.1880293126
 H         -1.0711587854        4.3550874134       -0.1354750395
 H         -0.3065514481        3.5111361515        2.0531729144
 H          1.7636084827        2.1338717911        2.1826128790
 H          4.2652382710        0.2959122573        2.0904466183
 H          4.1046395167       -1.9952788170        2.7026631342
 H          2.9624294575       -4.1574111945        2.3771906174
 H          1.0766638505       -4.3406991109        0.8010728414
 H         -0.5609395867       -3.3050516832       -0.4978431932
 C          0.4400769258       -2.4923276242       -2.1869632373
 C          1.7636231497       -2.0068759265       -2.6881651302
 C          1.5048989103       -3.4775109217       -2.5708485583
 H          1.3760607276       -4.0540399338       -3.4744901943
 H          2.0032920247       -4.0085819925       -1.7737964195
 H          1.7870993465       -1.5593696291       -3.6704650326
 H          2.4457378205       -1.5362739020       -1.9964137133
 H         -0.3940740190       -2.3868531158       -2.8740671199
