  62
        -98.94263006
 C          2.1368952744        0.8809576722        0.1665246278
 C          2.6220642557       -0.0196304330        1.1434052240
 C          2.9659011926       -1.3646125628        0.6644707121
 C          2.7622256119       -1.6727971922       -0.6296962799
 C          3.1034357774       -2.9915664010       -1.2594678587
 C          4.5273862268       -2.9828067778       -1.8330424030
 C          5.5825844688       -2.4640572695       -0.8560206549
 H          5.3960112230       -1.4056513857       -0.6604256803
 H          6.5505654594       -2.5330383285       -1.3567597896
 C          5.6407033680       -3.2231081278        0.4769727479
 H          6.6862669117       -3.4202257703        0.7223271970
 H          5.1439602126       -4.1885542209        0.3750535181
 C          5.0399610547       -2.4671131918        1.6634031395
 H          5.4673653755       -1.4625007578        1.7117805724
 H          5.3262561686       -2.9896696608        2.5799011721
 C          3.5112591789       -2.3403683621        1.6695435001
 H          3.2133332594       -1.9568952364        2.6499922181
 H          3.0587854978       -3.3250654171        1.5344781645
 H          4.5380917373       -2.3456629664       -2.7203637565
 H          4.7807469366       -3.9988152686       -2.1409978383
 H          2.3933952687       -3.1777792454       -2.0673143823
 H          3.0043222080       -3.7795559706       -0.5152495623
 O          2.2585652605       -0.7922848933       -1.5323258685
 C          1.9311761035        0.5029904130       -1.1608563675
 O          1.4779808559        1.2047696558       -2.0850122733
 O          2.7499790078        0.2844572622        2.3610499535
 C          1.7423994636        2.2853968246        0.5886358273
 C          0.2735924791        2.4937002599        0.3112149701
 C         -0.2424664389        3.6152317304       -0.3237463071
 C         -1.5976130544        3.7093532006       -0.5937119843
 C         -2.4658906393        2.6944439972       -0.2363179972
 C         -1.9616011057        1.5783650154        0.4157684683
 C         -0.6085919832        1.4903447625        0.6934439043
 H         -0.2222909258        0.6085307932        1.1920869813
 N         -2.8435526692        0.5230924259        0.7673274534
 S         -3.2553076897       -0.4874903176       -0.5285815261
 O         -2.3139508312       -1.5879524667       -0.5980872036
 O         -3.4124146413        0.3119589419       -1.7154390350
 C         -4.8441885293       -1.0908588638        0.0091121400
 C         -5.9443562447       -0.2716997821       -0.1544683112
 C         -7.1797074574       -0.7107861020        0.2933875176
 C         -7.2931497020       -1.9543188283        0.8973266213
 C         -6.1796958061       -2.7651871691        1.0549218042
 C         -4.9409568806       -2.3307892181        0.6092564855
 H         -4.0501357261       -2.9308513845        0.7033813463
 H         -6.2704323438       -3.7324282482        1.5225338042
 H         -8.2555835520       -2.2945904812        1.2454580977
 H         -8.0480296688       -0.0836988043        0.1707858786
 H         -5.8089280460        0.6820675043       -0.6367887485
 H         -2.4338414331       -0.0700573900        1.4785256580
 H         -3.5166492186        2.7442498098       -0.4684516416
 H         -1.9796375446        4.5828533107       -1.0998423559
 H          0.4196980864        4.4105759381       -0.6246969539
 H          1.8981329602        2.3199693249        1.6774432416
 C          2.6379835853        3.3146418567       -0.0669345273
 C          2.9055927983        4.6246680414        0.6103213975
 C          3.9844059276        3.5880222004        0.5313019876
 H          4.8184771113        3.7573957905       -0.1329483022
 H          4.2450775599        3.0490334868        1.4305337549
 H          3.0021356385        5.5097626593       -0.0000085150
 H          2.4381633083        4.7963673013        1.5679695770
 H          2.5637726372        3.2991384622       -1.1486483348
