  62
        -98.94403313
 C          2.2106929691        1.3013332043       -0.1545674924
 C          2.5897330021        0.2082976504       -0.9706226366
 C          3.9578140694       -0.2932365329       -0.7712257472
 C          4.7577569477        0.3054461598        0.1295788676
 C          6.1489801615       -0.1402733868        0.4727661069
 C          6.1387665422       -1.1339101061        1.6429940276
 C          5.1327076180       -2.2731844500        1.4777832480
 H          5.2357737716       -2.9265117870        2.3469340298
 H          4.1201175382       -1.8635053658        1.5032697709
 C          5.3119149653       -3.0976104312        0.1953039636
 H          6.3094420404       -2.9338957189       -0.2141998689
 H          5.2348281330       -4.1574838601        0.4470198130
 C          4.2679332380       -2.8212176786       -0.8884252777
 H          4.3544063245       -3.6009527023       -1.6500213340
 H          3.2649866139       -2.8941494366       -0.4593611271
 C          4.3891983448       -1.4687506980       -1.6019415703
 H          5.4104373985       -1.3333747746       -1.9638125649
 H          3.7177046198       -1.4883432627       -2.4654019866
 H          5.8914550716       -0.5895579880        2.5572788271
 H          7.1430854514       -1.5465720050        1.7545051103
 H          6.6054278074       -0.5980368944       -0.4025926577
 H          6.7312191463        0.7374432976        0.7582277437
 O          4.3654628158        1.3685078440        0.8769153179
 C          3.0825685141        1.8779237681        0.7705176746
 O          2.8423819988        2.8319302034        1.5374307504
 H         -1.0505577864        0.4677815696       -1.7248232822
 C         -1.0423370592        0.1884008764       -0.6835241433
 C         -0.1713712708        0.8123559770        0.1942987109
 C         -0.1777144601        0.4207052536        1.5310133644
 C         -1.0230722850       -0.5792615331        1.9715493044
 C         -1.8794982566       -1.2137742737        1.0880537336
 C         -1.8830105550       -0.8282954259       -0.2453717692
 N         -2.7479437736       -1.4669921614       -1.1468465215
 S         -4.3218277859       -1.7687245647       -0.6765004708
 O         -4.3687584399       -2.9422601129        0.1599785961
 O         -5.0768427392       -1.8409633845       -1.9075890027
 C         -4.8053256655       -0.3343333962        0.2687470195
 C         -5.1593229847       -0.4687852874        1.5955015422
 C         -5.5038427422        0.6640010697        2.3157725277
 C         -5.4849714351        1.9056123126        1.7002090127
 C         -5.1298371951        2.0241480673        0.3650002049
 C         -4.7855792975        0.8951703501       -0.3598453164
 H         -4.5111792621        0.9530510827       -1.4007809256
 H         -5.1174532779        2.9910756640       -0.1118591484
 H         -5.7493839855        2.7869744190        2.2629453297
 H         -5.7823320056        0.5745780441        3.3534523927
 H         -5.1595357604       -1.4527704894        2.0354836231
 H         -2.6922852743       -1.1226865929       -2.0933064600
 H         -2.5304532716       -2.0107233435        1.4088948392
 H         -1.0132087556       -0.8736054891        3.0100800489
 H          0.5007514242        0.9088906931        2.2176443125
 C          0.8063554897        1.8775680874       -0.2382188430
 H          0.7711443700        2.6907703389        0.4994526107
 C          0.5320644585        2.4540093891       -1.6106818979
 C         -0.5814945733        3.4408512514       -1.7886368735
 C          0.8441277165        3.8961809131       -1.8681087398
 H          1.2465312979        4.1715423301       -2.8315229073
 H          1.2460271437        4.4729058684       -1.0478011371
 H         -1.1601357659        3.4099421932       -2.6994179842
 H         -1.1497207832        3.7117854464       -0.9119105980
 H          0.7312411913        1.7544895138       -2.4136445746
 O          1.8336632074       -0.3237602532       -1.8249964801
