  62
        -98.94659931
 C         -2.5005415118       -0.3267825953       -0.0163959431
 C         -2.3286485179       -1.4721720919       -0.8271613097
 C         -1.6585847305       -2.6106251665       -0.1918813020
 C         -1.2570934212       -2.5165976932        1.0889835436
 C         -0.5303200275       -3.5801753642        1.8663264426
 C          0.9846385039       -3.5823122266        1.6164680384
 C          1.4194493358       -4.1679075665        0.2718388826
 H          2.4957835067       -4.3408104864        0.3327113186
 H          0.9395054090       -5.1364117694        0.1239971454
 C          1.1368295708       -3.2568383850       -0.9305687988
 H          2.0150574308       -3.2359917225       -1.5808022954
 H          0.9734462544       -2.2367627016       -0.5752378208
 C         -0.0498727917       -3.6872685157       -1.7932559141
 H          0.1718047326       -4.6454162601       -2.2696833250
 H         -0.1878544311       -2.9422074283       -2.5810602612
 C         -1.3753174197       -3.8195641965       -1.0330213087
 H         -2.1815934013       -3.9072842170       -1.7659732520
 H         -1.3660027843       -4.7165411805       -0.4141201978
 H          1.4479146621       -4.1680638312        2.4143258014
 H          1.3484274505       -2.5543000464        1.6977893567
 H         -0.9448225003       -4.5616220144        1.6327816291
 H         -0.7067047861       -3.3686167944        2.9232332387
 O         -1.4869472868       -1.4155297574        1.8521594878
 C         -2.0709460158       -0.2832470513        1.3105439062
 O         -2.1749664170        0.6738436517        2.1047487409
 O         -2.7089434575       -1.5348791299       -2.0288630024
 C         -3.0738995009        0.9362822157       -0.6326163333
 C         -2.0756679454        2.0590807340       -0.4815565459
 C         -2.4321696300        3.3663860903       -0.1779293355
 C         -1.4574808772        4.3324816169        0.0062270582
 C         -0.1155330141        4.0097985553       -0.0745372665
 C          0.2507944607        2.7074606695       -0.3935934654
 C         -0.7279464526        1.7605622088       -0.6387034159
 H         -0.4331309840        0.7549443015       -0.8970558277
 N          1.6089864728        2.3212454369       -0.4751220540
 S          2.1066498377        1.0884813568        0.5771711598
 O          1.2891114853       -0.0803380542        0.3990599572
 O          2.2008934554        1.6195511756        1.9227144110
 C          3.7438258612        0.7824422831       -0.0582796046
 C          4.8239790256        1.4474976044        0.4892415520
 C          6.0864858112        1.2236654107       -0.0372185157
 C          6.2459687247        0.3447126055       -1.0977464872
 C          5.1521337679       -0.3169077359       -1.6357391068
 C          3.8873765332       -0.0963985629       -1.1140811835
 H          3.0094284706       -0.5932280196       -1.4939370991
 H          5.2789222683       -1.0024072093       -2.4581135658
 H          7.2291376445        0.1713239165       -1.5058333523
 H          6.9390472025        1.7337385893        0.3813276885
 H          4.6552856612        2.1109363188        1.3221292883
 H          2.2232867682        3.1119113376       -0.3186087376
 H          0.6435513018        4.7548471779        0.1134348586
 H         -1.7474165137        5.3448551730        0.2442699712
 H         -3.4726365550        3.6270368955       -0.0704163655
 H         -3.1982410137        0.7133826699       -1.7033148802
 C         -4.4302605925        1.2583109541       -0.0406221648
 C         -5.4779221659        1.9418570041       -0.8666507790
 C         -5.6265265645        0.4924220149       -0.5179680004
 H         -6.3769496878        0.2064939571        0.2035881823
 H         -5.4635817375       -0.2419631421       -1.2931644911
 H         -6.1319519840        2.6522625812       -0.3837563767
 H         -5.2260829560        2.1927651491       -1.8859160407
 H         -4.3732095970        1.4926551760        1.0168490402
