  62
        -98.93772501
 C         -1.7854757130       -0.8494081828       -0.7866525355
 C         -2.0526147467       -0.0268314946        0.3316426023
 C         -3.4687698762        0.1107489600        0.7208828595
 C         -4.4159794090       -0.5326258250        0.0130608566
 C         -5.9175297020       -0.6119114507        0.1970180936
 C         -6.6439294046        0.3566453090        1.1267508109
 C         -6.6500036470        1.8108453590        0.6565388615
 H         -7.2822431021        1.8855987275       -0.2319038807
 H         -7.1048182013        2.4210413486        1.4399942820
 C         -5.2848640910        2.3944068003        0.3007586592
 H         -4.8642203779        1.8519005046       -0.5483393703
 H         -5.4376014123        3.4280004503       -0.0217417135
 C         -4.2633329885        2.4078849461        1.4362252046
 H         -3.4018181457        2.9886113490        1.0963746668
 H         -4.6868523905        2.9148363640        2.3054317315
 C         -3.7446835913        1.0281349625        1.8772969104
 H         -2.7865941267        1.1734907805        2.3848884583
 H         -4.4217741153        0.5589910318        2.5871471443
 H         -6.2445611957        0.2830424604        2.1339325132
 H         -7.6836566865        0.0211607742        1.1738667654
 H         -6.3446235931       -0.5312958906       -0.8077362398
 H         -6.1208398233       -1.6340829287        0.5354047566
 O         -4.1040353658       -1.3256018490       -1.0553652287
 C         -2.8001450094       -1.5033672794       -1.4810578409
 O         -2.6775350262       -2.2577079383       -2.4678622301
 H          2.1289251441       -0.2616594915       -0.3572217181
 C          1.7254404873       -1.0941662224        0.1930891444
 C          0.4842542881       -1.6126104469       -0.1384502828
 C          0.0025146534       -2.7025968697        0.5825469086
 C          0.7371903633       -3.2433839451        1.6191467249
 C          1.9727347875       -2.7165071358        1.9532745405
 C          2.4680331944       -1.6363128639        1.2340012713
 N          3.7006288515       -1.0618127261        1.5681031923
 S          4.6953007970       -0.3965768458        0.4056407565
 O          4.6743106187       -1.1614862533       -0.8195850944
 O          5.9838800388       -0.2853457848        1.0562882172
 C          4.0474625543        1.2372502065        0.1185560703
 C          3.4980486338        1.9452880757        1.1686802909
 C          3.0212219602        3.2251373989        0.9345551065
 C          3.1083714275        3.7760647953       -0.3348247490
 C          3.6710808979        3.0555965226       -1.3768762785
 C          4.1461304954        1.7733843624       -1.1503719327
 H          4.5798323821        1.1723600785       -1.9340965688
 H          3.7382256900        3.4859071665       -2.3636731151
 H          2.7335385951        4.7716074747       -0.5136747132
 H          2.5784472361        3.7863570946        1.7416547669
 H          3.4364840198        1.4870093410        2.1415473495
 H          4.2160131037       -1.5261040604        2.3006019378
 H          2.5460258836       -3.1354288373        2.7662468227
 H          0.3474297552       -4.0851106737        2.1719495795
 H         -0.9626631054       -3.1157811754        0.3212861455
 C         -0.3560868703       -1.0457517961       -1.2568867152
 H         -0.3991936396       -1.7942709408       -2.0621316272
 C          0.1854089985        0.2504380555       -1.8236333309
 C          1.2462117544        0.2298596162       -2.8813446168
 C         -0.1561512796        0.6231682597       -3.2337344836
 H         -0.3599800230        1.6591154850       -3.4585777159
 H         -0.7592690445       -0.0733880147       -3.7982259454
 H          2.0043521387        0.9980309177       -2.8623878819
 H          1.6065018681       -0.7331737327       -3.2110562924
 H          0.2130456330        1.0461623108       -1.0877064723
 O         -1.1535212847        0.5629539532        0.9847189020
