  62
        -98.94564649
 C          1.0896814132        1.4363199591        0.7619345414
 C          2.0094916643        1.4473598204       -0.3138968056
 C          3.0173575067        0.3771447254       -0.3035561165
 C          2.9902662261       -0.5475657507        0.6733600007
 C          3.9341416523       -1.7101709414        0.7753598414
 C          3.3899934972       -2.9486207982        0.0503055469
 C          2.8803438982       -2.6689896227       -1.3629751678
 H          2.5449650924       -3.6201559978       -1.7813596160
 H          2.0064805291       -2.0156991190       -1.3046471243
 C          3.9215548286       -2.0441027496       -2.3018220041
 H          4.9239777308       -2.2030742602       -1.9023334736
 H          3.8732537058       -2.5523865801       -3.2671760747
 C          3.7174288902       -0.5530185714       -2.5740407172
 H          2.6847524484       -0.3727260870       -2.8836308463
 H          4.3633977903       -0.2678939926       -3.4088523759
 C          4.0396232989        0.3859716212       -1.4050905517
 H          5.0327820490        0.1580616049       -1.0125144422
 H          4.0499928118        1.4082292212       -1.7944969104
 H          4.1813684620       -3.6993697064        0.0116798060
 H          2.5618205501       -3.3511072770        0.6348227353
 H          4.8957442871       -1.4227358615        0.3538815525
 H          4.0693648148       -1.9491467609        1.8314904114
 O          2.0689229174       -0.5444912163        1.6712149054
 C          1.0999236346        0.4427312457        1.7412956645
 O          0.3184241995        0.3297732347        2.7070763560
 H         -1.3383119206        0.2850109484        0.2741171138
 C         -1.5375852344        1.0464298445       -0.4668133965
 C         -0.9343407258        2.2918540585       -0.3354192042
 C         -1.1987410527        3.2641234349       -1.2896994385
 C         -2.0381669905        2.9840498770       -2.3547173921
 C         -2.6426300092        1.7467288250       -2.4771808462
 C         -2.3924061040        0.7692597069       -1.5197699978
 N         -2.9771681437       -0.5037657714       -1.6078573965
 S         -3.5440465079       -1.2342259281       -0.2108834264
 O         -4.5128491933       -2.2023193654       -0.6825345949
 O         -4.0383023708       -0.2569750943        0.7309843647
 C         -2.1533663676       -2.1153249508        0.4630985404
 C         -1.4366082980       -2.9525892783       -0.3691501121
 C         -0.3978290845       -3.6958763707        0.1662984084
 C         -0.0979757294       -3.5924690831        1.5167524121
 C         -0.8217183441       -2.7423452619        2.3368420411
 C         -1.8625622446       -1.9971813181        1.8069600409
 H         -2.4404888144       -1.3159865929        2.4112409045
 H         -0.5765630052       -2.6439404155        3.3818786723
 H          0.7033823199       -4.1796627343        1.9381128675
 H          0.1733300735       -4.3544341614       -0.4684335187
 H         -1.7025929589       -3.0100179443       -1.4116277734
 H         -3.6197295927       -0.6238725077       -2.3777019285
 H         -3.3011189128        1.5335515694       -3.3056503841
 H         -2.2294401108        3.7441572466       -3.0970619197
 H         -0.7405398444        4.2356864015       -1.2077396505
 C         -0.0059457945        2.4864041550        0.8392915304
 H         -0.5757102803        2.2658605930        1.7539335786
 C          0.5722124786        3.8802663407        0.9481886339
 C         -0.2510636263        4.9832132605        1.5403693217
 C          0.9104160661        4.4221313756        2.3030746662
 H          1.7988222947        5.0262974949        2.4097252773
 H          0.7065198811        3.7917097025        3.1566090732
 H         -0.1600074086        5.9759316889        1.1262701897
 H         -1.2465097785        4.7364560558        1.8783689357
 H          1.2430138482        4.1225392683        0.1328108898
 O          2.0009512607        2.3070800345       -1.2330410143
