  62
        -98.93490507
 C         -2.7971015760       -0.3321555427        0.0615726427
 C         -2.0529393411       -1.0387171658        1.0369225008
 C         -1.4612643946       -2.3130836548        0.6033158217
 C         -1.6440399555       -2.7364026382       -0.6591395466
 C         -0.9581081867       -3.9140101224       -1.2896645881
 C          0.4820041073       -3.5151735768       -1.6771196517
 C          1.5752419989       -4.2588678319       -0.9087492080
 H          1.6561229304       -5.2759887537       -1.2989962212
 H          2.5167262497       -3.7464480942       -1.1188064426
 C          1.3825030147       -4.3504697736        0.6084197461
 H          0.6872607096       -5.1591184311        0.8400866315
 H          2.3462700431       -4.6359066440        1.0355027180
 C          0.8940422900       -3.0709199526        1.2999705899
 H          1.1410923692       -2.1912914659        0.7030875093
 H          1.4169858142       -2.9758924133        2.2543875906
 C         -0.6170889953       -3.0518943908        1.6037844049
 H         -0.9872012118       -4.0742220794        1.7163304282
 H         -0.7791793120       -2.5329281897        2.5528593797
 H          0.6334431904       -3.6920496171       -2.7435695884
 H          0.5987794609       -2.4392120529       -1.5211367625
 H         -0.9520430314       -4.7556380755       -0.6005843048
 H         -1.5276411322       -4.1899974970       -2.1774442253
 O         -2.4182306532       -2.0660915270       -1.5512175814
 C         -2.9772582138       -0.8437189697       -1.2274017137
 O         -3.6193104474       -0.3138664525       -2.1575156373
 H         -0.7947385471        1.1027561764        1.2037175729
 C         -0.9362933262        1.8478561193        0.4349978863
 C         -2.1937725780        2.0253514209       -0.1241135138
 C         -2.3470151753        2.9968394922       -1.1050994610
 C         -1.2628797823        3.7448896190       -1.5337211396
 C          0.0006531490        3.5188871933       -1.0160987384
 C          0.1569199731        2.5604395619       -0.0256519583
 N          1.4641530699        2.2385526358        0.4416726372
 S          2.1541045696        1.1159259842       -0.6317107954
 O          2.2808638106        1.7601154891       -1.9146899404
 O          1.4107503706       -0.1261600187       -0.6138876972
 C          3.7688155152        0.8806530666        0.0864583363
 C          4.0670328590       -0.2963517515        0.7443944842
 C          5.3223405766       -0.4458623546        1.3136309937
 C          6.2495918289        0.5804022092        1.2190129608
 C          5.9337398068        1.7578683633        0.5568262565
 C          4.6819933531        1.9127183614       -0.0162928325
 H          4.3935797364        2.8043139012       -0.5474289748
 H          6.6580665945        2.5530427082        0.4850375422
 H          7.2252122297        0.4610240279        1.6630200752
 H          5.5694479858       -1.3609412790        1.8273424211
 H          3.3172856215       -1.0701003040        0.7921221973
 H          1.4061802469        1.7772623161        1.3430388153
 H          0.8635741446        4.0481225286       -1.3851578273
 H         -1.3984889053        4.4902567208       -2.3026944998
 H         -3.3165689452        3.1400485127       -1.5593744251
 C         -3.3165844265        1.0869206197        0.2569952652
 H         -4.1267088159        1.2198115145       -0.4728524192
 C         -3.8595734629        1.3861940131        1.6381290506
 C         -4.8346713660        2.5116317165        1.8036391468
 C         -5.2973661547        1.0926441489        1.9383256789
 H         -5.5507904560        0.7193753183        2.9188781815
 H         -5.8970156400        0.6733828812        1.1433433186
 H         -4.7715173511        3.1183755288        2.6936808116
 H         -5.1261285820        3.0568221498        0.9187040575
 H         -3.1429156583        1.2172453354        2.4301837066
 O         -1.8497621963       -0.6338346171        2.2150194002
