  62
        -98.94507222
 C         -2.5555484921       -0.1006473935        0.4067345944
 C         -2.3251825500        0.5524156790       -0.8279582654
 C         -2.0951545503        2.0015879975       -0.7530314432
 C         -2.1254389288        2.6137159811        0.4443354986
 C         -1.9235211445        4.0853176409        0.6627286593
 C         -0.4588152499        4.4316086757        0.9578833277
 C          0.5395354766        3.8349282651       -0.0342996952
 H          1.5274089022        4.2140603467        0.2386942721
 H          0.5748091272        2.7502722477        0.0918204116
 C          0.2575566667        4.1655955889       -1.5063200246
 H          1.2026365165        4.4224108998       -1.9893047990
 H         -0.3906918979        5.0404709445       -1.5747659776
 C         -0.3518421538        3.0131398792       -2.3077101939
 H          0.2134318497        2.0982042230       -2.1102240261
 H         -0.2494188722        3.2446872261       -3.3715000729
 C         -1.8356061599        2.7268268524       -2.0427789485
 H         -2.4061068401        3.6572513563       -2.0875457464
 H         -2.1957916792        2.0629278048       -2.8342142154
 H         -0.2083151675        4.0611895794        1.9549423657
 H         -0.3615151980        5.5195019803        0.9645557346
 H         -2.5349552206        4.3875295844        1.5153641192
 H         -2.2617391710        4.6224453785       -0.2216241689
 O         -2.3436361796        1.9511278119        1.6107718650
 C         -2.5363615204        0.5793698426        1.6222733805
 O         -2.6915817154        0.0903562422        2.7622969693
 O         -2.3266509793       -0.0425481042       -1.9378522115
 C         -2.7774295014       -1.6010542282        0.4351671065
 C         -1.6216049187       -2.3212421911       -0.2183751677
 C         -1.7766162385       -3.4894569268       -0.9538310868
 C         -0.6747836860       -4.1139222534       -1.5133240797
 C          0.5942723548       -3.5879468745       -1.3620789274
 C          0.7592583165       -2.4148507808       -0.6315838253
 C         -0.3415781751       -1.8102006328       -0.0497155256
 H         -0.2029230464       -0.9124408121        0.5351704987
 N          2.0272899041       -1.8229049472       -0.5155842033
 S          2.3170718215       -0.5939001850        0.5910407254
 O          2.0601708066       -1.0519155019        1.9406606453
 O          1.6169884801        0.5916258153        0.1686481816
 C          4.0704505740       -0.3819888444        0.3503610161
 C          4.9500332813       -1.1201890009        1.1199297261
 C          6.3119224143       -0.9759774413        0.9072154475
 C          6.7691377866       -0.1012903911       -0.0671211122
 C          5.8748090294        0.6351603139       -0.8295359357
 C          4.5116427204        0.4949081048       -0.6219627669
 H          3.7784341804        1.0504153861       -1.1835004309
 H          6.2334114453        1.3173367194       -1.5833026538
 H          7.8293617464        0.0096849891       -0.2307339129
 H          7.0095089029       -1.5441958519        1.5010974673
 H          4.5493586404       -1.7772858554        1.8751058033
 H          2.7964555883       -2.4713466368       -0.6000270029
 H          1.4494396525       -4.0686395615       -1.8112826390
 H         -0.8081784043       -5.0226289371       -2.0805586607
 H         -2.7598540102       -3.9094146697       -1.0903250902
 H         -2.7979981560       -1.8861653083        1.4986227749
 C         -4.1169089714       -1.9420850227       -0.1880988218
 C         -4.9246508215       -3.0956717613        0.3240382532
 C         -5.3643958164       -1.6908227970        0.6027698283
 H         -6.2329209118       -1.3068577466        0.0892853251
 H         -5.2420091795       -1.3030616323        1.6040733894
 H         -5.4971609949       -3.6778559303       -0.3823065136
 H         -4.5170682846       -3.6678642966        1.1438967425
 H         -4.1441452860       -1.7256857527       -1.2499712993
