  62
        -98.94359995
 C          0.6706846616        1.5724162964        0.1721733640
 C          1.3886723772        0.6352483283        0.9458726870
 C          2.3442828439       -0.2238145189        0.2247788378
 C          2.4546361677       -0.1073214796       -1.1121296871
 C          3.2631753555       -0.9034710401       -2.1161563058
 C          4.3859179879       -1.8309357971       -1.6585465265
 C          5.5994631630       -1.1163660002       -1.0638465342
 H          6.2832557693       -1.8721195952       -0.6715723640
 H          6.1156431813       -0.5851397211       -1.8673509514
 C          5.2917754173       -0.1027652974        0.0353054503
 H          4.6769819848        0.7027315089       -0.3715258938
 H          6.2380740133        0.3431464629        0.3530249752
 C          4.6073470863       -0.6726325043        1.2757004105
 H          4.5881294138        0.1167547374        2.0316186545
 H          5.1976309971       -1.5010915349        1.6717930785
 C          3.1604984727       -1.1559290722        1.0744967425
 H          3.1352547459       -2.1675304777        0.6749328528
 H          2.6739262679       -1.1719979839        2.0541365685
 H          4.7225928886       -2.3724059051       -2.5468914942
 H          4.0006398180       -2.5744108184       -0.9668679008
 H          3.6676029145       -0.1717784875       -2.8231107855
 H          2.5260547356       -1.4932515222       -2.6744330164
 O          1.7329953599        0.8104951516       -1.8191002791
 C          0.8251501663        1.6584587060       -1.2105513514
 O          0.2440189342        2.4370078417       -1.9910461829
 O          1.2277995850        0.5046629999        2.1899590094
 C         -0.3724153401        2.4459450277        0.8457709209
 C         -1.7194481537        2.1525317296        0.2322915474
 C         -2.6233438647        3.1311465461       -0.1580885961
 C         -3.8119212447        2.7767013845       -0.7737379889
 C         -4.1131008456        1.4517925638       -1.0289534312
 C         -3.2216434651        0.4636504328       -0.6248671561
 C         -2.0564301002        0.8196343546        0.0309307317
 H         -1.3687383619        0.0485993544        0.3462208049
 N         -3.4867722423       -0.8939915200       -0.8543553757
 S         -2.2275023173       -1.9623907408       -1.1263162895
 O         -1.1217322980       -1.3530763072       -1.8283754611
 O         -2.8580303293       -3.0836107525       -1.7940660466
 C         -1.7363936332       -2.4791526628        0.5040451751
 C         -0.3956978940       -2.5451940566        0.8245350915
 C         -0.0295073180       -2.9820885358        2.0876560872
 C         -1.0060364893       -3.3412605606        3.0031341701
 C         -2.3491347135       -3.2718814226        2.6647734892
 C         -2.7214432956       -2.8405366779        1.4021575495
 H         -3.7532050702       -2.7756154600        1.0998941556
 H         -3.1051735184       -3.5512258975        3.3807774456
 H         -0.7156297930       -3.6753229107        3.9866865169
 H          1.0143488484       -3.0304311012        2.3519606468
 H          0.3329530256       -2.2362603110        0.0899567973
 H         -4.2840097295       -1.0842611356       -1.4436169150
 H         -5.0237018050        1.1808312636       -1.5411176269
 H         -4.5039854273        3.5464012645       -1.0802823547
 H         -2.3913534853        4.1711830442        0.0026000623
 H         -0.3895853172        2.1265938503        1.8985380809
 C          0.0202584517        3.9063878428        0.7819694625
 C         -0.4296525960        4.8580630547        1.8490959003
 C          1.0058400326        4.4347096766        1.7794435447
 H          1.7420173577        5.1509679566        1.4467184609
 H          1.3741459645        3.7440703610        2.5238370140
 H         -0.6778388367        5.8698519010        1.5659617040
 H         -1.0358454185        4.4610739846        2.6490563878
 H          0.0933265297        4.2713604696       -0.2365747614
