  62
        -98.94032433
 C          2.6291157427       -1.3201319010        0.0856664242
 C          2.4573356646       -0.1628228123        0.8822665359
 C          3.6653764761        0.6460278533        1.1014036838
 C          4.8342520077        0.2455069353        0.5684918246
 C          6.1273815935        1.0004440544        0.6695698035
 C          6.3041216216        1.9588274960       -0.5164890491
 C          5.0816399113        2.8352328894       -0.7898441573
 H          5.3317939963        3.4910376620       -1.6266606246
 H          4.2524234692        2.2026169557       -1.1156386998
 C          4.6288194660        3.6838828686        0.4064618090
 H          5.4362054153        3.7563841132        1.1360655880
 H          4.4155821952        4.6961243740        0.0565603577
 C          3.3628237933        3.1782074702        1.1010809982
 H          3.0121269284        3.9604904554        1.7797567573
 H          2.5760065428        3.0149254419        0.3593832803
 C          3.5211435210        1.8942840792        1.9254884395
 H          4.3599226431        2.0013599339        2.6163185418
 H          2.6064668870        1.7622386626        2.5109134558
 H          6.5080761139        1.3676642356       -1.4122204284
 H          7.1715035314        2.5922969617       -0.3225471355
 H          6.1458889146        1.5558169514        1.6051134088
 H          6.9468874902        0.2798673254        0.6679952635
 O          4.9624727061       -0.8835415859       -0.1743447619
 C          3.8653133058       -1.6829605817       -0.4487569154
 O          4.1145826022       -2.6725157901       -1.1665319153
 H         -1.2207279207       -1.8164287974        0.4228823523
 C         -0.9236850744       -1.2959878104       -0.4740272972
 C          0.3792053203       -1.3973264806       -0.9310856489
 C          0.7337026286       -0.7073983847       -2.0880745055
 C         -0.1908754874        0.0678755739       -2.7596991423
 C         -1.4920268867        0.1700010615       -2.2976607491
 C         -1.8567974267       -0.5144079077       -1.1475024864
 N         -3.1820153564       -0.4489664111       -0.6791291597
 S         -3.9925538648        1.0307862461       -0.7450038268
 O         -4.4150967510        1.2601912919       -2.1043715732
 O         -3.1917744604        2.0759928668       -0.1476396005
 C         -5.4093350152        0.6658381828        0.2722543262
 C         -5.3695725157        0.9703043163        1.6197462270
 C         -6.4635585530        0.6550666844        2.4103372899
 C         -7.5704817883        0.0409194806        1.8437857326
 C         -7.5954828012       -0.2580786851        0.4896386416
 C         -6.5056650955        0.0555291493       -0.3067690145
 H         -6.4826951824       -0.1496329233       -1.3641742851
 H         -8.4590634854       -0.7332558496        0.0530463181
 H         -8.4199611204       -0.2034066533        2.4618354702
 H         -6.4480068825        0.8889357159        3.4627441086
 H         -4.4915253247        1.4553819725        2.0160964094
 H         -3.2752146826       -0.8610458571        0.2396777382
 H         -2.2197789429        0.7804928774       -2.8070454777
 H          0.1012409405        0.6021947017       -3.6517834990
 H          1.7515890720       -0.7820297840       -2.4479745133
 C          1.4381052962       -2.2096358092       -0.2251673687
 H          1.8036351896       -2.9732944332       -0.9266937677
 C          0.9546258554       -2.8969543370        1.0343064514
 C          0.2164961023       -4.1980630229        0.9455260898
 C          1.6216355125       -4.1671770879        1.4653325468
 H          1.7871053901       -4.3299707761        2.5197689971
 H          2.4120604956       -4.5497469073        0.8360582490
 H         -0.5826370435       -4.3882213602        1.6460709662
 H          0.0492968265       -4.6103658950       -0.0379496446
 H          0.6709361174       -2.1951777284        1.8102828392
 O          1.3556779225        0.1772824067        1.3889226916
