  62
        -98.93493980
 C         -2.1834002073       -1.0603975789        0.5933916438
 C         -2.1918326982       -0.1505830534       -0.4909827418
 C         -3.0862075860        1.0171842745       -0.3564628161
 C         -3.7746586036        1.1926765990        0.7837201228
 C         -4.7731529060        2.2721865381        1.0975289765
 C         -6.2008958852        1.8012246223        0.7720609337
 C         -6.6443669966        2.0373424428       -0.6712175355
 H         -7.6101193941        1.5431193623       -0.7989743308
 H         -6.8002148344        3.1067446143       -0.8277868638
 C         -5.6829569015        1.5218454402       -1.7453466896
 H         -6.2477000582        1.4069539668       -2.6724498669
 H         -5.3153508934        0.5325614648       -1.4669785230
 C         -4.4989732221        2.4668404513       -2.0002343108
 H         -4.7007510930        3.4269309212       -1.5253947133
 H         -4.4169524317        2.6631566002       -3.0712387821
 C         -3.1294234073        1.9426380115       -1.5417420507
 H         -2.6650898899        1.3746673602       -2.3543451520
 H         -2.4670171229        2.7927460777       -1.3441848574
 H         -6.8995471638        2.3220208548        1.4299055264
 H         -6.2635415008        0.7355994671        1.0074473936
 H         -4.5296245232        3.1884326111        0.5678473134
 H         -4.7040089106        2.4575312134        2.1715867667
 O         -3.6762455768        0.3329978428        1.8355162412
 C         -2.8890744694       -0.8019099159        1.7704854267
 O         -2.8884773272       -1.4850676893        2.8144637525
 O         -1.5020022702       -0.2959890496       -1.5327569495
 C         -1.3324512198       -2.3192924038        0.5768687881
 C          0.0600868255       -1.9912922700        0.0961086431
 C          0.6515907770       -2.5670172506       -1.0197118593
 C          1.9312947263       -2.2006195068       -1.3987959676
 C          2.6486681975       -1.2655880471       -0.6758467401
 C          2.0644733750       -0.6794399641        0.4395569530
 C          0.7840204321       -1.0503361624        0.8186145132
 H          0.3247930354       -0.5885634971        1.6854761806
 N          2.7882601370        0.2611700980        1.1937860476
 S          3.5633194357        1.5154290986        0.3906280064
 O          3.6944165585        2.5641149425        1.3798396684
 O          2.8872493790        1.8709506206       -0.8351467579
 C          5.1775447023        0.8531990928        0.0336309318
 C          5.6537766680        0.8606111189       -1.2627191117
 C          6.9154848889        0.3448948436       -1.5159912095
 C          7.6745492914       -0.1650769858       -0.4739249453
 C          7.1830490662       -0.1618081824        0.8231075741
 C          5.9232064980        0.3531412756        1.0832228006
 H          5.5059151161        0.3775206879        2.0759913729
 H          7.7763026979       -0.5589309035        1.6309541011
 H          8.6551234731       -0.5672848233       -0.6738316860
 H          7.2992491800        0.3423910895       -2.5235652847
 H          5.0247610848        1.2617434742       -2.0416391589
 H          2.2814952373        0.6147698629        1.9924938999
 H          3.6430347420       -0.9752973710       -0.9730251971
 H          2.3765611545       -2.6488936079       -2.2739101002
 H          0.1008550457       -3.2807548935       -1.6096797530
 H         -1.2559200183       -2.6196195462        1.6353436883
 C         -1.9667516904       -3.4912407847       -0.1571565382
 C         -3.4568722972       -3.6314625793       -0.2401119921
 C         -2.6621478540       -3.3364868240       -1.4748466016
 H         -2.5487157732       -4.1216241008       -2.2081337880
 H         -2.7135332798       -2.3470585514       -1.9001349027
 H         -3.8869128041       -4.6149830607       -0.1243425253
 H         -4.0578375612       -2.8404601897        0.1852530544
 H         -1.4081625649       -4.4097555905       -0.0059437426
