  62
        -98.93413184
 C         -2.1592956174       -0.8321354607       -0.4060575435
 C         -3.3939664221       -1.0261230285        0.2622022822
 C         -4.1816556911        0.1825557523        0.5430890362
 C         -3.6803641761        1.3831096006        0.2002212029
 C         -4.3882489053        2.6993183956        0.3532999126
 C         -5.4412142064        2.8630162149       -0.7616078295
 C         -6.8863934443        2.8955119815       -0.2639764301
 H         -7.0851073001        3.8707837712        0.1853087552
 H         -7.5348419533        2.7965467390       -1.1370567813
 C         -7.2637868333        1.8221938551        0.7615938180
 H         -8.3543925003        1.8030197475        0.8148208550
 H         -6.9096842044        2.1183574997        1.7501535994
 C         -6.7604668746        0.4036540114        0.4649218280
 H         -7.5469875147       -0.3005733800        0.7433913633
 H         -6.5815966503        0.2740266873       -0.6026072554
 C         -5.4976703357       -0.0049417635        1.2463812116
 H         -5.4761509853        0.5187241306        2.2062344221
 H         -5.5498238224       -1.0767496865        1.4593678602
 H         -5.3176724554        2.0424974673       -1.4714948858
 H         -5.2481239815        3.7854153324       -1.3113176392
 H         -4.8561531168        2.7529385103        1.3338230102
 H         -3.6340977470        3.4835097381        0.2833688991
 O         -2.4767729152        1.5325441480       -0.4100578820
 C         -1.6856329155        0.4386758495       -0.7310091073
 O         -0.6170803539        0.7381192315       -1.2977740565
 H          1.2095872690       -1.1326389757       -1.2716470676
 C          1.1132194856       -1.4873580619       -0.2578733802
 C         -0.0938996857       -2.0118253528        0.1753957091
 C         -0.2019815125       -2.4330457979        1.4979957325
 C          0.8726019960       -2.3303026673        2.3610363706
 C          2.0749062837       -1.7986035098        1.9273054554
 C          2.1885334700       -1.3668165214        0.6132459047
 N          3.4054190519       -0.8198832521        0.1565249614
 S          4.1325368693        0.3365608667        1.1517969281
 O          4.8413210969       -0.3518919370        2.2025722721
 O          3.1602998527        1.3150526925        1.5870917380
 C          5.2974677092        1.0681916198        0.0196603037
 C          4.9047690097        2.1592160551       -0.7323546190
 C          5.8022280657        2.7084665285       -1.6345828831
 C          7.0678909845        2.1578512667       -1.7710765567
 C          7.4464355583        1.0617897126       -1.0102219952
 C          6.5545813556        0.5083388026       -0.1053429640
 H          6.8049867613       -0.3377608785        0.5128285181
 H          8.4316951600        0.6380714698       -1.1188609918
 H          7.7633657700        2.5880016277       -2.4743073086
 H          5.5102941717        3.5613448837       -2.2261618095
 H          3.9128139569        2.5587812557       -0.5891004791
 H          3.3059792513       -0.4489231334       -0.7797253182
 H          2.9156156205       -1.6940217290        2.5939761645
 H          0.7745313674       -2.6607678182        3.3844024130
 H         -1.1477113039       -2.8259715448        1.8449339608
 C         -1.3126683853       -2.0574381054       -0.7123468180
 H         -1.9247341166       -2.9165616725       -0.4070421770
 C         -0.9962800689       -2.1822636392       -2.1876533291
 C         -0.4567866783       -3.4780289954       -2.7131636833
 C         -1.8547328142       -3.0567387337       -3.0495601726
 H         -2.0687218888       -2.7339962392       -4.0574427175
 H         -2.6740916137       -3.5761355362       -2.5747601095
 H         -0.3253729425       -4.2833271519       -2.0064938354
 H          0.2907108076       -3.4485301954       -3.4909605134
 H         -0.6303105704       -1.2630521757       -2.6283638681
 O         -3.8189307793       -2.1617833836        0.6053722879
