  62
        -98.94239693
 C          0.7153300984        1.2937936088        0.1151236261
 C          1.4468257198        0.7279168746        1.1829799186
 C          2.3904206902       -0.3477821900        0.8320097195
 C          2.4912795142       -0.7324569368       -0.4525315564
 C          3.4863958901       -1.6941485838       -1.0418027624
 C          4.7363849991       -0.9397528564       -1.5294161798
 C          5.8289659495       -0.7482372806       -0.4786393417
 H          6.2943380752       -1.7125444405       -0.2638982293
 H          6.5949440338       -0.1062867138       -0.9197857340
 C          5.3682492881       -0.1239522569        0.8408937170
 H          6.2467640279        0.2890646126        1.3406278756
 H          4.6907629606        0.7080108355        0.6395525017
 C          4.6902182710       -1.1307690696        1.7816755814
 H          4.8816554495       -2.1413273354        1.4212613951
 H          5.1457320292       -1.0645073026        2.7719831131
 C          3.1797689037       -0.9265568385        1.9745107608
 H          3.0114305671       -0.2345978226        2.8059654247
 H          2.7233298761       -1.8789113732        2.2658575326
 H          5.1704767389       -1.4877103566       -2.3680432237
 H          4.4147651399        0.0341891315       -1.9066415055
 H          3.7516822997       -2.4673581576       -0.3271575317
 H          3.0047887185       -2.1543485435       -1.9053432111
 O          1.7107442214       -0.2118188224       -1.4377216278
 C          0.8012053128        0.7996648685       -1.1860314732
 O          0.1500989416        1.1680535520       -2.1805152071
 O          1.3376246182        1.1225764825        2.3769027251
 C         -0.1967659933        2.4756970927        0.3867426935
 C         -1.6123686114        2.1620702472       -0.0239061321
 C         -2.3797513087        2.9931734214       -0.8294326929
 C         -3.6742032977        2.6387592869       -1.1674085914
 C         -4.2278049449        1.4570303352       -0.7122946735
 C         -3.4714885994        0.6246314160        0.1067108958
 C         -2.1773813752        0.9827647921        0.4467582520
 H         -1.5992715657        0.3375680925        1.0931565996
 N         -4.0141133048       -0.5696357577        0.5986222783
 S         -3.0624766407       -1.8430142231        1.0758910803
 O         -3.9705097156       -2.9718300001        1.0920718035
 O         -2.4187485204       -1.5502590662        2.3327303439
 C         -1.8349130603       -2.1220452847       -0.1889234257
 C         -0.6468600916       -2.7064268377        0.2007427214
 C          0.2846087773       -3.0493170091       -0.7646372298
 C          0.0199265341       -2.7870428546       -2.0995190662
 C         -1.1688617468       -2.1832871303       -2.4744689009
 C         -2.1129718889       -1.8569363994       -1.5142637087
 H         -3.0457484341       -1.3936514888       -1.7912042132
 H         -1.3639594688       -1.9630555112       -3.5114962534
 H          0.7451927182       -3.0496898703       -2.8534216817
 H          1.2103015867       -3.5170120821       -0.4705925322
 H         -0.4740310673       -2.8759565273        1.2520900122
 H         -4.8911087316       -0.8609242461        0.1946015578
 H         -5.2353137114        1.1784570890       -0.9802252724
 H         -4.2582804458        3.2899356281       -1.7996169196
 H         -1.9640803073        3.9157744058       -1.1987058536
 H         -0.1828747565        2.6119092217        1.4786763606
 C          0.3667979392        3.7207092550       -0.2676543890
 C          0.0903397906        5.0733390736        0.3153585580
 C          1.4585730726        4.4733277435        0.4298148381
 H          2.2584112217        4.8910645070       -0.1631403671
 H          1.7780057774        4.1026082663        1.3930688477
 H         -0.0468402895        5.9072549645       -0.3563180470
 H         -0.5186776285        5.1183268220        1.2055085714
 H          0.4340766855        3.6297001213       -1.3461633465
