  62
        -98.94587738
 C         -2.1951077799       -0.1672303705       -0.1125499577
 C         -2.0558866895       -1.2276219901       -1.0455948810
 C         -1.4470077769       -2.4632749667       -0.5405415371
 C         -1.0897792804       -2.5507584041        0.7529730778
 C         -0.4886537051       -3.7517862120        1.4308482011
 C          1.0342367143       -3.8632271948        1.2759514747
 C          1.5165566506       -4.2620264772       -0.1188384766
 H          2.5752461477       -4.5141042600       -0.0331911959
 H          0.9921584912       -5.1612781374       -0.4441089315
 C          1.3590391663       -3.1628690011       -1.1784916835
 H          1.2210145820       -2.1936360171       -0.6929036507
 H          2.2769111534       -3.0802151489       -1.7658910455
 C          0.2146280841       -3.3856038136       -2.1679722013
 H          0.1742924991       -2.5155004037       -2.8294998141
 H          0.4249365187       -4.2654508319       -2.7809244030
 C         -1.1657041259       -3.5611265315       -1.5202044572
 H         -1.2313127087       -4.5347415894       -1.0342370961
 H         -1.9219853598       -3.5095534407       -2.3076222297
 H          1.4891529955       -2.9096025499        1.5534163395
 H          1.3787496533       -4.6187522978        1.9855718483
 H         -0.9609649475       -4.6586049208        1.0520404826
 H         -0.7204289496       -3.6571138604        2.4938540006
 O         -1.2630777826       -1.5239380182        1.6237398030
 C         -1.7522921996       -0.2890447799        1.2057940862
 O         -1.7389615636        0.5759281654        2.0995123827
 O         -2.4215937166       -1.1419955178       -2.2486789595
 C         -2.6899523818        1.1700430596       -0.6395492034
 C         -1.6505703803        2.2162897377       -0.3232218926
 C         -1.8564163061        3.2833595008        0.5399019106
 C         -0.8219614630        4.1599785310        0.8186131548
 C          0.4308605853        3.9834594188        0.2602883359
 C          0.6468658193        2.9198417404       -0.6102822166
 C         -0.3990442324        2.0613504516       -0.9085273403
 H         -0.2312391579        1.2408978416       -1.5920842952
 N          1.9051934807        2.7262817849       -1.2068687063
 S          2.6136377126        1.2196766209       -1.3369412912
 O          3.9281578217        1.4895944012       -1.8765987739
 O          1.7744898592        0.3399707223       -2.1078891669
 C          2.7794721169        0.6166378715        0.3325323195
 C          1.6584353521        0.1515873884        0.9891916597
 C          1.7746695364       -0.2722660376        2.3034137561
 C          3.0094859127       -0.2356929148        2.9329243408
 C          4.1292694248        0.2275272667        2.2583225768
 C          4.0147648735        0.6655770469        0.9488142314
 H          4.8567500292        1.0348969864        0.3860869487
 H          5.0882019418        0.2521079499        2.7503483500
 H          3.0953835418       -0.5712812172        3.9543706473
 H          0.8920344959       -0.6162076555        2.8206957318
 H          0.7096019329        0.1289725397        0.4755181896
 H          2.5971205278        3.4142707447       -0.9466587436
 H          1.2381973952        4.6610372186        0.4934634102
 H         -0.9896852198        4.9845106442        1.4947019958
 H         -2.8169349555        3.4121353022        1.0108211321
 H         -2.7051606455        1.0342408155       -1.7344898431
 C         -4.1034416924        1.5581475748       -0.2401101600
 C         -5.1452177880        0.5060758116       -0.0050534246
 C         -4.6626054493        1.3504118253        1.1341126608
 H         -5.3308619886        2.1030327593        1.5270025527
 H         -4.0233917450        0.9030086232        1.8773675470
 H         -6.1413130987        0.6708659767       -0.3876066225
 H         -4.8256736721       -0.5254824304       -0.0468872085
 H         -4.4329266267        2.4500615221       -0.7653305518
