  62
        -98.93861280
 C          2.0771812150        0.9171416942       -0.4459320687
 C          3.1377963114        1.1694867195        0.4557913782
 C          4.4026874988        0.4451083894        0.2274016607
 C          4.4763226604       -0.4146284232       -0.8057224006
 C          5.6327222197       -1.2901167112       -1.2098911722
 C          5.7945122422       -2.5171331039       -0.2984064839
 C          5.6672643807       -2.2292827009        1.1951798843
 H          4.6913170117       -1.7814743676        1.3915684637
 H          5.6947462925       -3.1874599083        1.7208933441
 C          6.7624810858       -1.3423877583        1.7828167613
 H          6.6000937311       -1.3005343511        2.8628992811
 H          7.7337662518       -1.8119470943        1.6117976428
 C          6.8163679558        0.0932227094        1.2557007793
 H          7.2839969318        0.1348222031        0.2756473063
 H          7.4612999719        0.6631215421        1.9309818910
 C          5.4714369182        0.8123288337        1.2287038873
 H          5.0017302478        0.7309519992        2.2155281594
 H          5.6524715343        1.8843841107        1.0845483717
 H          5.0193418259       -3.2400221763       -0.5647333791
 H          6.7648663811       -2.9728851199       -0.5027940368
 H          5.4234372514       -1.6366701265       -2.2244147897
 H          6.5489173068       -0.7079806314       -1.2417171608
 O          3.4234287278       -0.6355367654       -1.6432908200
 C          2.2085869047        0.0087684579       -1.4952847669
 O          1.3580779161       -0.3048742242       -2.3504164372
 H         -1.1876013397        0.3682936009       -1.6949413710
 C         -1.1858368104        0.0739491261       -0.6576469948
 C         -0.2693815165        0.6346083365        0.2181562873
 C         -0.2764736727        0.2188391778        1.5471526376
 C         -1.1683974710       -0.7428378861        1.9827261430
 C         -2.0711099558       -1.3132238187        1.1021236761
 C         -2.0726174945       -0.9042691164       -0.2247749889
 N         -2.9808660683       -1.4813994383       -1.1254032975
 S         -4.5629167471       -1.7079884851       -0.6413851531
 O         -4.6602323244       -2.8919493467        0.1762563430
 O         -5.3353898265       -1.7201699237       -1.8637006838
 C         -4.9605222697       -0.2676797396        0.3340540043
 C         -4.9106278996        0.9671885799       -0.2821270119
 C         -5.1845376804        2.1007849185        0.4652167319
 C         -5.4996796163        1.9812104077        1.8103303402
 C         -5.5494523713        0.7342928008        2.4133937697
 C         -5.2760233824       -0.4031916377        1.6704615260
 H         -5.3032211853       -1.3915320571        2.0996085486
 H         -5.7969457389        0.6442080497        3.4588241492
 H         -5.7086980455        2.8660217079        2.3906538950
 H         -5.1480935387        3.0717460582       -0.0020917209
 H         -4.6681277735        1.0245936538       -1.3310635694
 H         -2.9159727663       -1.1235401030       -2.0661546513
 H         -2.7596620060       -2.0799857177        1.4179892067
 H         -1.1597455864       -1.0565516999        3.0154658115
 H          0.4389832384        0.6529416756        2.2315171375
 C          0.7599716219        1.6431307119       -0.2271695676
 H          0.9460667709        2.3309477267        0.6086388254
 C          0.3484486676        2.4502487819       -1.4401030704
 C         -0.7107641019        3.5007653432       -1.2963811756
 C          0.7172597974        3.9004935182       -1.5119915061
 H          1.0008910855        4.3118592259       -2.4692368456
 H          1.2634355380        4.3188827452       -0.6793768429
 H         -1.4109487595        3.6426680903       -2.1053296117
 H         -1.1335914306        3.6468104612       -0.3141636536
 H          0.3861020914        1.8869201186       -2.3646189073
 O          3.0378324469        1.9715592580        1.4231185715
