  62
        -98.93921446
 C         -2.1263495376       -1.0467481472        0.0649532665
 C         -2.8470572477       -0.3235350580        1.0405481078
 C         -3.5927800639        0.8637281466        0.5794748674
 C         -3.5124778311        1.2125368889       -0.7183693681
 C         -4.2049431997        2.3503200579       -1.4202434112
 C         -5.6924721244        2.0648467137       -1.6848352773
 C         -6.4448988439        1.4346184307       -0.5156583882
 H         -7.4484899025        1.1799414371       -0.8661573200
 H         -5.9534016102        0.5013327261       -0.2350112635
 C         -6.5929159914        2.3221948459        0.7177788422
 H         -7.1230208130        3.2358762516        0.4399241108
 H         -7.2165060903        1.7810519703        1.4339072709
 C         -5.2918287620        2.7123789281        1.4218880461
 H         -4.7745975591        3.5009512904        0.8817550410
 H         -5.5616961205        3.1301616398        2.3962980586
 C         -4.3414935413        1.5510219553        1.6964610303
 H         -4.8854411223        0.7600777021        2.2253137286
 H         -3.5723248339        1.8908314165        2.4011274341
 H         -6.1766498566        2.9996916517       -1.9719735525
 H         -5.7571323256        1.3769954312       -2.5313802909
 H         -3.6987722699        2.4800784552       -2.3795462435
 H         -4.0796599740        3.2692090643       -0.8549630117
 O         -2.7742085426        0.5027755933       -1.6195703651
 C         -2.0658683716       -0.6306328841       -1.2646126845
 O         -1.4399165357       -1.1634331530       -2.2000394027
 O         -2.8713803545       -0.6514964354        2.2590589314
 C         -1.3433248012       -2.2780557491        0.4847217249
 C          0.1266067423       -2.0454654632        0.2347955843
 C          0.9372243594       -2.9180074380       -0.4779422953
 C          2.2709808546       -2.6152385192       -0.6941139493
 C          2.8256638214       -1.4491691958       -0.2004106505
 C          2.0254526633       -0.5729306243        0.5216795742
 C          0.6917229622       -0.8790300536        0.7371117942
 H          0.0671563733       -0.1914666735        1.2953102196
 N          2.5824963301        0.6115812530        1.0406763979
 S          3.3738467807        1.6295865799       -0.0383239006
 O          3.2953739825        2.9451141145        0.5601622727
 O          2.8475447214        1.5004154157       -1.3776537460
 C          5.0628184609        1.0687123422        0.0163977209
 C          5.7039319084        0.7013904477       -1.1503382952
 C          7.0214448436        0.2747679951       -1.0847532791
 C          7.6703335399        0.2243540981        0.1394514330
 C          7.0125470277        0.5988792199        1.3018338728
 C          5.6961682492        1.0275120315        1.2432627568
 H          5.1497835098        1.3302840473        2.1208076872
 H          7.5204804977        0.5580497093        2.2518587043
 H          8.6948481898       -0.1091940631        0.1878901326
 H          7.5340280088       -0.0164512281       -1.9874859100
 H          5.1557539075        0.7510307620       -2.0778093867
 H          1.9331279678        1.1433696993        1.6030925181
 H          3.8615986237       -1.2075759425       -0.3736974801
 H          2.8873073471       -3.2980967355       -1.2586308258
 H          0.5227790637       -3.8288889325       -0.8769992367
 H         -1.4963544703       -2.3651818676        1.5707578783
 C         -1.8917453769       -3.5182071805       -0.1873201196
 C         -1.7305298850       -4.8591992495        0.4622586669
 C         -3.0778181119       -4.2052111783        0.4181126950
 H         -3.8298886745       -4.6115348897       -0.2413675892
 H         -3.4775576133       -3.7909347492        1.3322777638
 H         -1.5592986085       -5.7195283403       -0.1667402492
 H         -1.2162642998       -4.8955811837        1.4105490018
 H         -1.8455065729       -3.4606201872       -1.2689606988
