  62
        -98.93728546
 C         -2.2914518407       -0.6390987595        0.1650009994
 C         -3.5242286107       -0.9643996700        0.7871480093
 C         -4.7380173408       -0.6119823696        0.0434275396
 C         -4.6326248009       -0.0050321388       -1.1523671500
 C         -5.7752864409        0.3930690518       -2.0468630597
 C         -6.4067415710        1.7459404615       -1.6905463587
 C         -7.2519219309        1.7544077106       -0.4161144386
 H         -7.8068380410        2.6945957806       -0.4059936480
 H         -7.9822886409        0.9459667806       -0.4603831891
 C         -6.4399765908        1.6468833398        0.8822511512
 H         -5.3928915809        1.8817606300        0.6771317113
 H         -6.7992426708        2.3882652292        1.5995114918
 C         -6.5156691507        0.2815873593        1.5657888003
 H         -5.8743850807        0.3043826587        2.4506241103
 H         -7.5393534107        0.0931216690        1.8966896402
 C         -6.0637620807       -0.8906269901        0.6851405195
 H         -5.9468077806       -1.7717885105        1.3207948689
 H         -6.8162381707       -1.1035707396       -0.0738493806
 H         -5.6116586110        2.4903089415       -1.6060272682
 H         -7.0464278011        2.0363437520       -2.5271123685
 H         -5.3689062110        0.4586179725       -3.0584042696
 H         -6.5408810509       -0.3832008883       -2.0292181701
 O         -3.4328566909        0.3100839417       -1.7071137098
 C         -2.2346876509        0.0252087613       -1.0610147001
 O         -1.2277331009        0.4126381818       -1.6819655499
 O         -3.6049117406       -1.5226311908        1.9136544389
 C         -1.0180859107       -0.9918701900        0.9105192791
 C         -0.0537978108        0.1669678601        0.9095816399
 C         -0.4457016108        1.3650761897        1.5028197807
 C          0.4085105092        2.4492516497        1.5392425214
 C          1.6834960491        2.3555738201        1.0086283313
 C          2.0827173592        1.1669323306        0.4113048304
 C          1.2137866392        0.0855911205        0.3580613597
 H          1.5455535992       -0.8140297291       -0.1326782909
 N          3.3624017691        1.0374273910       -0.1515514997
 S          4.1403420492       -0.4534813890       -0.0081760308
 O          3.7627408492       -1.2939845383       -1.1163877214
 O          3.9182689993       -1.0005637500        1.3117242988
 C          5.8442522092        0.0444249212       -0.1858245406
 C          6.3668403891        0.2003572721       -1.4558328705
 C          7.6825335591        0.6140312522       -1.5921804403
 C          8.4490833091        0.8644096815       -0.4636160601
 C          7.9113100692        0.7022982606        0.8043771098
 C          6.5960460092        0.2895477204        0.9479892796
 H          6.1385821693        0.1401292398        1.9127943995
 H          8.5105580393        0.8943480500        1.6797488699
 H          9.4730856891        1.1849108916       -0.5730882900
 H          8.1050223290        0.7380733929       -2.5762156302
 H          5.7358453991       -0.0146795174       -2.3025665306
 H          3.9749462791        1.8096696309        0.0716829608
 H          2.3567467991        3.1986004401        1.0460766718
 H          0.0857772391        3.3727673394        1.9963923420
 H         -1.4372697308        1.4342639893        1.9303276608
 H         -1.3469310906       -1.1509575307        1.9523173690
 C         -0.3761081006       -2.2955750396        0.4603217982
 C         -1.1982709206       -3.4166404193       -0.0987556725
 C         -0.2494310707       -2.6693626386       -0.9848319721
 H          0.6584902193       -3.1596592384       -1.3063801125
 H         -0.6524501608       -1.9846709181       -1.7147396616
 H         -0.9495486105       -4.4272537195        0.1881419068
 H         -2.2571828006       -3.2448102593       -0.2264761723
 H          0.4505279194       -2.5812475100        1.1057688380
