  62
        -98.94802842
 C          1.2636579393        1.0461060024       -0.0454527774
 C          1.6302630619       -0.0151593994        0.8157177966
 C          2.6773991595       -0.9125454513        0.3178457740
 C          3.1738414160       -0.7346137388       -0.9197983514
 C          4.2187832787       -1.5889019810       -1.5852239356
 C          5.6613745820       -1.2180164057       -1.2143138310
 C          6.0899708485       -1.6045097021        0.2018001784
 H          5.8678265524       -2.6585539651        0.3715183495
 H          7.1743875558       -1.4878144421        0.2509341511
 C          5.4512528377       -0.7562845646        1.3102250637
 H          5.0394537710        0.1579080633        0.8767632056
 H          6.2191177029       -0.4546760497        2.0260396833
 C          4.3516710155       -1.4679319095        2.0984245007
 H          4.7785818692       -2.3131571428        2.6427301342
 H          3.9456471952       -0.7656353322        2.8307476175
 C          3.1892937225       -1.9797773319        1.2373149134
 H          3.4980333038       -2.8562004130        0.6673127997
 H          2.3689692583       -2.2691997725        1.8992052700
 H          6.3195089327       -1.7273647161       -1.9220223523
 H          5.7913992050       -0.1424429329       -1.3541878835
 H          4.0923743291       -1.4500331429       -2.6612922997
 H          4.0368597188       -2.6381567676       -1.3493482537
 O          2.7512507411        0.2617607006       -1.7428784205
 C          1.7950254309        1.1785732977       -1.3278587877
 O          1.5098285085        2.0416476896       -2.1799961398
 O          1.1014817227       -0.2058305839        1.9445667737
 C          0.1945761701        2.0224470561        0.4061045503
 C         -1.0331348151        1.9052706036       -0.4643966845
 C         -1.8049513713        2.9934425347       -0.8523088665
 C         -2.9375052122        2.8060846209       -1.6261135356
 C         -3.3414621936        1.5383511920       -2.0041009370
 C         -2.5791116632        0.4427734156       -1.6153769653
 C         -1.4343235698        0.6370242816       -0.8604593065
 H         -0.8345066341       -0.2192209914       -0.5938062457
 N         -2.9475183100       -0.8655239765       -1.9631809553
 S         -2.6792428054       -2.1044028986       -0.8714841139
 O         -1.2853250737       -2.4725389247       -0.8567178402
 O         -3.5985971855       -3.1442614507       -1.2841998595
 C         -3.1921743200       -1.4395645958        0.7030136348
 C         -4.5436210082       -1.2046832591        0.8741146450
 C         -4.9850600421       -0.6419738977        2.0595881628
 C         -4.0704000506       -0.3190488347        3.0510364379
 C         -2.7196439898       -0.5664862050        2.8669572915
 C         -2.2713836693       -1.1325712208        1.6831257534
 H         -1.2220580168       -1.3242976180        1.5205311456
 H         -1.9998637251       -0.3183529159        3.6308428395
 H         -4.4111287700        0.1254483032        3.9728192584
 H         -6.0363420995       -0.4539107423        2.2062568218
 H         -5.2239276874       -1.4799461338        0.0846193608
 H         -3.8412428421       -0.9517661205       -2.4239324272
 H         -4.2289256030        1.3952666724       -2.6010068344
 H         -3.5213117690        3.6609730121       -1.9315041629
 H         -1.5151911468        3.9883722298       -0.5567838712
 H         -0.0871780392        1.6948023176        1.4190987538
 C          0.7474579102        3.4300844500        0.4867644160
 C          0.2226002359        4.3925062471        1.5089685256
 C          1.5926199123        3.8068284007        1.6656790044
 H          2.4506727578        4.4417343085        1.5034704082
 H          1.7451170865        3.0546750253        2.4261019974
 H          0.1415444458        5.4351535278        1.2409951939
 H         -0.5544208575        4.0436863882        2.1720869267
 H          1.0400316859        3.8169719373       -0.4827272000
