  62
        -98.94000031
 C         -1.3010195695       -1.1692366399        0.0481851310
 C         -2.2068916894       -0.7583747187        1.0513702306
 C         -2.8446690291        0.5540424113        0.8544648895
 C         -2.5112158388        1.2943305402       -0.2168179212
 C         -2.9995417284        2.6739065501       -0.5816738224
 C         -4.5063842984        2.9459868406       -0.4560403427
 C         -5.4127757887        1.7301747906       -0.6977095516
 H         -6.1878417586        2.0037242402       -1.4160818819
 H         -4.8373253289        0.9127890201       -1.1353058309
 C         -6.1075563089        1.2409920019        0.5756142188
 H         -6.4643635986        2.1087240625        1.1349174581
 H         -6.9840447790        0.6525278719        0.2936121493
 C         -5.2560069291        0.3683865925        1.4973143796
 H         -5.0911926794       -0.6084003679        1.0342729205
 H         -5.8233754292        0.1949652935        2.4150305497
 C         -3.8797771290        0.9438048724        1.8698809891
 H         -3.9273746687        2.0215538626        2.0068353682
 H         -3.5688449591        0.4858779432        2.8131024795
 H         -4.7217973283        3.3549775015        0.5303264470
 H         -4.7479850781        3.7275443200       -1.1782781833
 H         -2.4567174483        3.4011108704        0.0290971770
 H         -2.6875242284        2.8202724491       -1.6180198725
 O         -1.6076487389        0.8713127992       -1.1444332808
 C         -0.9903895193       -0.3655014209       -1.0490043097
 O         -0.2055624493       -0.6243332219       -1.9776712095
 H          0.7420202006       -0.7234965691        1.6028969906
 C          1.4141658304       -1.3014989798        0.9799608011
 C          0.8911877802       -2.3020987904        0.1692377220
 C          1.7667639900       -3.0378815313       -0.6172944473
 C          3.1234881801       -2.7600780217       -0.6062789775
 C          3.6364477103       -1.7512344611        0.1876287816
 C          2.7698661405       -1.0187764102        0.9889163809
 N          3.2788251508        0.0215340704        1.7972136000
 S          4.0125503411        1.2892580895        0.9812156889
 O          5.2732305210        0.8349816887        0.4523790693
 O          4.0752055614        2.3717636703        1.9377324180
 C          2.9002059213        1.7019625586       -0.3485918815
 C          3.0770643611        1.1230822075       -1.5887017710
 C          2.1751503312        1.4163956269       -2.5980324412
 C          1.1186606315        2.2779126074       -2.3516958620
 C          0.9534804116        2.8495261385       -1.1001498825
 C          1.8473839315        2.5548149592       -0.0842612222
 H          1.7549576516        2.9826409700        0.9019076874
 H          0.1259381818        3.5150902389       -0.9122814531
 H          0.4125633915        2.4955173369       -3.1370698422
 H          2.2898601111        0.9629088060       -3.5688667908
 H          3.9130958110        0.4606917371       -1.7426796804
 H          2.5893958809        0.3954517012        2.4345267697
 H          4.6867338804       -1.5083636414        0.1923061514
 H          3.7906239599       -3.3353326924       -1.2300699870
 H          1.3869655498       -3.8228140917       -1.2501937066
 C         -0.6027527599       -2.5104803799        0.1788706222
 H         -0.8930639400       -2.9015561790        1.1654620225
 C         -1.0908397201       -3.4674991507       -0.8881033270
 C         -1.0884608305       -4.9453454405       -0.6385833657
 C         -2.3838206903       -4.1929342702       -0.6716722864
 H         -3.0439004304       -4.3348539107       -1.5142641163
 H         -2.8997877603       -4.0185355392        0.2614034635
 H         -0.8614099207       -5.6073195913       -1.4605908851
 H         -0.7279762107       -5.2908878498        0.3184827546
 H         -0.8767353200       -3.1150330817       -1.8908468073
 O         -2.4607212296       -1.4480688178        2.0766349812
