  62
        -98.94339551
 C         -0.7419501547       -1.8383714171        0.0874434958
 C         -1.4912681608       -1.1462869528        1.0648505583
 C         -2.7302232227       -0.4911550597        0.6104949414
 C         -3.0738203891       -0.5606922247       -0.6891458054
 C         -4.2734642994       -0.0105984261       -1.4317475754
 C         -5.1717648079        1.0457728657       -0.7941250862
 C         -4.5085761507        2.4064159900       -0.5856974660
 H         -4.3060420675        2.8504872125       -1.5637703574
 H         -5.2180499355        3.0543532332       -0.0654492865
 C         -3.1937565972        2.3889087844        0.1905600590
 H         -2.4293122667        1.8649483764       -0.3893538348
 H         -2.8506938671        3.4233913107        0.2883314402
 C         -3.2778259045        1.7898771905        1.5936970572
 H         -4.0789584271        2.2803570350        2.1503765180
 H         -2.3358805915        2.0128390647        2.1015880376
 C         -3.4968960035        0.2672751037        1.6565022681
 H         -4.5545700081        0.0188504987        1.6032725855
 H         -3.1253413924       -0.0875027196        2.6224659013
 H         -5.5849963234        0.6778473544        0.1404229352
 H         -6.0125360405        1.1912902926       -1.4780347831
 H         -3.8785120457        0.3803765722       -2.3753182009
 H         -4.8888113886       -0.8797564203       -1.6906763110
 O         -2.3272129379       -1.2573511456       -1.5951946977
 C         -1.1484382976       -1.8955433193       -1.2448877456
 O         -0.5745065009       -2.4685728156       -2.1906362884
 O         -1.1429647835       -1.0764981615        2.2749239296
 C          0.5689389753       -2.4823767141        0.4881490734
 C          1.7452603069       -1.8552350491       -0.2247570833
 C          2.9639584010       -2.5133607404       -0.3567805221
 C          4.0305789431       -1.8942442678       -0.9839592917
 C          3.9176488849       -0.6069398810       -1.4788933409
 C          2.7046332248        0.0593817248       -1.3528348972
 C          1.6383126524       -0.5679772298       -0.7279413483
 H          0.6961224672       -0.0486499319       -0.6683578830
 N          2.5323035686        1.3574446832       -1.8500231082
 S          1.4337497249        2.4042880938       -1.1562828394
 O          0.0842045208        2.0260642652       -1.4940526198
 O          1.8562588374        3.7097737999       -1.6184623101
 C          1.7118610425        2.2659631428        0.5994104671
 C          0.7426412385        1.7204287340        1.4140494898
 C          1.0078151916        1.5596726071        2.7643023238
 C          2.2331279406        1.9559551100        3.2763297011
 C          3.1928682531        2.5200971474        2.4486561903
 C          2.9352193583        2.6723316226        1.0963504471
 H          3.6556948947        3.1082862296        0.4236150277
 H          4.1423986709        2.8326437598        2.8523095277
 H          2.4393112475        1.8240506576        4.3267804408
 H          0.2595894767        1.1018308577        3.3922612980
 H         -0.2000849028        1.4167079159        0.9869799591
 H          3.3682315022        1.8205550221       -2.1719628060
 H          4.7508477062       -0.1269470152       -1.9682965173
 H          4.9678066091       -2.4198233112       -1.0853912326
 H          3.0730578010       -3.5150666948        0.0260651525
 H          0.6794552108       -2.2720300553        1.5635889512
 C          0.5110709943       -3.9858420175        0.2932681741
 C          1.1713496713       -4.9117930717        1.2696772775
 C         -0.3223139623       -4.8040293118        1.2327688629
 H         -0.8948569260       -5.6268130221        0.8317930039
 H         -0.8174509378       -4.2793550726        2.0369521258
 H          1.6272393612       -5.8154259968        0.8938139412
 H          1.6840195568       -4.4724551127        2.1121318912
 H          0.5021294637       -4.2662429565       -0.7539920834
