  62
        -98.94139467
 C         -2.3596745921       -0.8675432796       -0.4287977962
 C         -3.2076859939       -0.1414300640        0.4481099450
 C         -3.4828127554        1.2523727439        0.0901113481
 C         -2.9353587254        1.7704529263       -1.0237434673
 C         -3.1238963558        3.1737474323       -1.5336179779
 C         -2.1897775934        4.2015317262       -0.8804055672
 C         -2.5350002569        4.5673520435        0.5638350092
 H         -1.9503562138        5.4537516724        0.8174911526
 H         -3.5885371635        4.8419779955        0.6258757666
 C         -2.2266356851        3.4648567876        1.5867578863
 H         -1.5392535348        2.7383577661        1.1449283596
 H         -1.7159412001        3.9008100646        2.4485282525
 C         -3.4575387897        2.7283310559        2.1158372304
 H         -3.1190405403        1.9435375534        2.7970037680
 H         -4.0836253479        3.4215431609        2.6821100342
 C         -4.3171033031        2.0715805381        1.0283554575
 H         -4.8726189773        2.8301785566        0.4774490735
 H         -5.0274364087        1.3977305462        1.5135423120
 H         -1.1666813345        3.8192610744       -0.9251943846
 H         -2.2328252163        5.1110912125       -1.4842746042
 H         -2.9116548859        3.1460390728       -2.6046005539
 H         -4.1611135732        3.4791810945       -1.3914682592
 O         -2.1428530727        1.0411531314       -1.8511062626
 C         -1.8146040443       -0.2804149303       -1.5714892092
 O         -1.0671045177       -0.7913496557       -2.4289950086
 O         -3.7237016512       -0.6458298507        1.4820317302
 C         -2.0467617263       -2.2967533272       -0.0195833939
 C         -0.7930077152       -2.3315322278        0.8229097372
 C         -0.8235402837       -2.8408646655        2.1158977569
 C          0.3181829329       -2.8487239771        2.8970739575
 C          1.5051503071       -2.3369547342        2.4072903506
 C          1.5476282347       -1.8298797820        1.1123027951
 C          0.4061374315       -1.8406621233        0.3244797967
 H          0.4543627916       -1.4375722484       -0.6760872574
 N          2.7461623560       -1.3236200705        0.5855743818
 S          2.6745373895       -0.0055255417       -0.4702601692
 O          1.6868823700        0.9457604149       -0.0108645327
 O          2.5391969903       -0.4971266777       -1.8170813710
 C          4.3194818452        0.6509700665       -0.2495780009
 C          4.5206791121        1.7297410401        0.5900288383
 C          5.8106013960        2.2019641507        0.7779224294
 C          6.8719314754        1.5879451310        0.1303267627
 C          6.6545747907        0.5058064352       -0.7099078704
 C          5.3674896244        0.0304074477       -0.9036653093
 H          5.1468692646       -0.8001496775       -1.5537422895
 H          7.4813931077        0.0322087825       -1.2140618130
 H          7.8744749893        1.9565878258        0.2791599768
 H          5.9816390991        3.0451128155        1.4275984555
 H          3.6639573949        2.1780888067        1.0672011210
 H          3.4630453648       -1.1996441489        1.2877594940
 H          2.3944798704       -2.3280763766        3.0189857106
 H          0.2800578287       -3.2438186933        3.9008024696
 H         -1.7566225430       -3.2121084108        2.5131561247
 H         -2.8854531883       -2.6018000762        0.6223316159
 C         -1.9444467710       -3.2781564080       -1.1688737969
 C         -2.1933316385       -4.7318365840       -0.9034933668
 C         -3.1879078343       -3.9317958309       -1.6888742518
 H         -3.2707005472       -4.1028527969       -2.7515128009
 H         -4.1230555214       -3.6719786778       -1.2144146611
 H         -1.5907181313       -5.4587483558       -1.4257683939
 H         -2.4572646175       -5.0188033434        0.1030664160
 H         -1.1794087110       -3.0195012304       -1.8893624403
