  62
        -98.94514373
 C         -1.0343726997       -1.3225760193        0.1685330704
 C         -1.3895070090       -0.0785365792        0.7444254706
 C         -2.4068782989        0.6968802213        0.0224845510
 C         -2.8815640594        0.2295611016       -1.1465642489
 C         -3.9471355994        0.8951416921       -1.9676338586
 C         -5.3431703395        0.3816720826       -1.5878251583
 C         -5.6146908491        0.3890134626       -0.0834858182
 H         -4.9545653592       -0.3340542778        0.4010880216
 H         -6.6383776992        0.0380583829        0.0643308821
 C         -5.4419320983        1.7597846524        0.5853754719
 H         -6.2859370481        1.9301495727        1.2570789522
 H         -5.4659034882        2.5459726825       -0.1699021780
 C         -4.1697978080        1.8995553518        1.4236149716
 H         -4.0961825982        1.0593149617        2.1185857915
 H         -4.2559462675        2.8110058618        2.0210028717
 C         -2.8565981382        1.9924820514        0.6358920512
 H         -2.0670012179        2.2768291010        1.3363874111
 H         -2.9407141581        2.7689470915       -0.1263566786
 H         -5.4453526500       -0.6443020473       -1.9490114883
 H         -6.0878447094        0.9962749330       -2.0969345980
 H         -3.8927834889        1.9718843021       -1.8211938485
 H         -3.7612228897        0.6691830521       -3.0188947887
 O         -2.4703534300       -0.9397190485       -1.6991535992
 C         -1.5477230702       -1.7515369590       -1.0558369595
 O         -1.2774458308       -2.8006331590       -1.6695578197
 H          1.5196662408       -0.1117988003        0.2688477498
 C          1.9033898604       -1.0104644604       -0.1931668104
 C          1.2483542099       -2.2170489302        0.0254468797
 C          1.7502268193       -3.3660946103       -0.5698108806
 C          2.8744452291       -3.2991544907       -1.3748313609
 C          3.5273355795       -2.0986471609       -1.5842501109
 C          3.0375790602       -0.9434467808       -0.9842671607
 N          3.6626898506        0.2978311190       -1.1810234807
 S          3.8178434314        1.3441193888        0.1163853794
 O          4.8965941116        2.2327100384       -0.2654579308
 O          4.0075231914        0.6261892185        1.3556384492
 C          2.3071569218        2.2825637694        0.1578345799
 C          1.7369742416        2.6899841897       -1.0315868499
 C          0.6029072619        3.4845017702       -0.9897275195
 C          0.0696074824        3.8659899702        0.2317503107
 C          0.6521179026        3.4452174099        1.4164843005
 C          1.7819116722        2.6447335494        1.3816921201
 H          2.2574963223        2.2840142991        2.2797859999
 H          0.2299386229        3.7307820599        2.3666290406
 H         -0.8074499273        4.4930328006        0.2617902110
 H          0.1395961018        3.8052317605       -1.9090171394
 H          2.1801748012        2.3769344696       -1.9625294501
 H          4.5050536004        0.2671768487       -1.7371650709
 H          4.4068197894       -2.0505021512       -2.2084812712
 H          3.2509001786       -4.1970918408       -1.8411126711
 H          1.2549220290       -4.3103073102       -0.4163792206
 C          0.0017519202       -2.1817204898        0.8737661400
 H          0.2439782006       -1.6444185600        1.8023463700
 C         -0.5481308503       -3.5457986896        1.2280402100
 C          0.1122543097       -4.3531216600        2.3042155697
 C         -1.2306847900       -3.7349091395        2.5482141002
 H         -2.0954575602       -4.3797782491        2.5937411803
 H         -1.2882955495       -2.8803434895        3.2066594803
 H          0.9685734000       -3.9181139104        2.7975556396
 H          0.1699553592       -5.4243661300        2.1853759196
 H         -0.9608733607       -4.0706763894        0.3746216201
 O         -0.8818537786        0.3604207805        1.8113690905
