  62
        -98.93780301
 C          2.5848621843        1.1191641362        0.4909425326
 C          3.4324346170        0.8337171807       -0.6086063062
 C          4.6272789056        0.0283274177       -0.3018245798
 C          4.8454684690       -0.3891047219        0.9573660118
 C          5.9897289219       -1.2584487457        1.3900073510
 C          5.6172914603       -2.7459512045        1.3189044315
 C          4.9799540460       -3.1599419055       -0.0074528522
 H          4.7880063758       -4.2337836339        0.0452903666
 H          4.0110278896       -2.6651559886       -0.1067805467
 C          5.8346454808       -2.8533446989       -1.2451760097
 H          6.8706249426       -2.6861992766       -0.9480640886
 H          5.8230356780       -3.7246526599       -1.9033848786
 C          5.3469689438       -1.6630881557       -2.0731856303
 H          4.2833741563       -1.7820365209       -2.2941864599
 H          5.8819815321       -1.6702966231       -3.0265744305
 C          5.5565323690       -0.2807823464       -1.4422422774
 H          6.5974155144       -0.1723710327       -1.1307424253
 H          5.3472370339        0.4693430493       -2.2105604174
 H          6.5193618061       -3.3358089025        1.4914970283
 H          4.9093374925       -2.9643270208        2.1217603085
 H          6.8509750314       -1.0581232773        0.7555411303
 H          6.2427784954       -1.0049822191        2.4209179395
 O          4.0078466627       -0.0987105030        1.9860858423
 C          2.8654420121        0.6526079606        1.7782145882
 O          2.1875675362        0.8471444754        2.8083356643
 H         -1.0556845025        1.7876296747        1.6273721824
 C         -1.0224818487        1.1520925183        0.7520944392
 C          0.1367996907        1.1019063186       -0.0079886138
 C          0.1694475011        0.2657325745       -1.1195946957
 C         -0.9370671959       -0.4919016541       -1.4580994249
 C         -2.0923001143       -0.4371271987       -0.6975732337
 C         -2.1339729579        0.3893132805        0.4167978854
 N         -3.3005483118        0.4379275080        1.1992099541
 S         -4.7571035639        0.7572601926        0.4246205494
 O         -4.5514148424        1.5356142387       -0.7745303420
 O         -5.6025224293        1.3470294456        1.4392523755
 C         -5.3875378272       -0.8544810548        0.0087428282
 C         -5.6822095077       -1.1596019004       -1.3055576799
 C         -6.1840151668       -2.4166820195       -1.6051664399
 C         -6.3819257846       -3.3404655140       -0.5904292822
 C         -6.0831008952       -3.0172918505        0.7249889564
 C         -5.5820166146       -1.7622722464        1.0313248089
 H         -5.3420979879       -1.4705012733        2.0401977108
 H         -6.2389985158       -3.7382667777        1.5112838956
 H         -6.7723403055       -4.3179742748       -0.8258226271
 H         -6.4179045807       -2.6695270912       -2.6268803830
 H         -5.5087799115       -0.4106232808       -2.0618570904
 H         -3.2086837585        1.0014969412        2.0322138360
 H         -2.9561072134       -1.0265243232       -0.9586287148
 H         -0.8999434144       -1.1338561105       -2.3252385021
 H          1.0672938635        0.2255227456       -1.7174938687
 C          1.3203618040        1.9541875541        0.3710231670
 H          1.1367773317        2.3365172639        1.3880233706
 C          1.4915587458        3.1675617828       -0.5340207661
 C          0.8347132804        3.3181732531       -1.8694559971
 C          0.3577445512        4.1349071921       -0.7087799130
 H          0.5701625296        5.1931635601       -0.6917921091
 H         -0.5951252242        3.8693847838       -0.2739906051
 H          1.4008775067        3.8015248561       -2.6507732621
 H          0.1997055744        2.5218501208       -2.2236349344
 H          2.4831117946        3.5989569152       -0.4398319160
 O          3.2244954876        1.2195329715       -1.7864413045
