  62
        -98.94626289
 C         -2.3897355093       -0.5230228925       -0.0126956517
 C         -1.3960366325       -0.7235512282        0.9729085774
 C         -0.7097165757       -2.0208306260        0.9483026834
 C         -1.0506942656       -2.9236847100        0.0111834445
 C         -0.3487777903       -4.2292987159       -0.2304334426
 C          0.9577929152       -3.9702697353       -1.0095883538
 C          2.2332090049       -4.3068116580       -0.2359651779
 H          2.3591221449       -5.3918049646       -0.2111403873
 H          3.0698874522       -3.8875900142       -0.7995357310
 C          2.2948562480       -3.7911347861        1.2051270897
 H          1.7278232875       -4.4581167082        1.8567087149
 H          3.3378434999       -3.8558974757        1.5221043638
 C          1.8022154647       -2.3541460321        1.4201142059
 H          2.4631743244       -1.8685753675        2.1416092645
 H          1.8691135192       -1.7831418775        0.4928885838
 C          0.3670720669       -2.2499665609        1.9718557446
 H          0.1321742372       -3.1414596468        2.5598540885
 H          0.3105964185       -1.3864687274        2.6407095465
 H          0.9534264580       -4.5538367941       -1.9321533335
 H          0.9805621410       -2.9184364202       -1.3063463101
 H         -0.1402676024       -4.7205567688        0.7174651773
 H         -1.0199144694       -4.8607024342       -0.8134115512
 O         -2.0363910756       -2.7097875007       -0.8990105942
 C         -2.7065498036       -1.4984331644       -0.9547937292
 O         -3.5514553118       -1.4151945351       -1.8712349698
 O         -1.0847043146        0.1520359331        1.8243413870
 C         -3.0600256775        0.8346561399       -0.1275889941
 C         -1.9939685671        1.8947342432       -0.2781183610
 C         -2.0313901813        3.1224629501        0.3706817235
 C         -0.9944537272        4.0274428013        0.2184758905
 C          0.1082541257        3.7202334169       -0.5577352211
 C          0.1481960919        2.4995424276       -1.2218556261
 C         -0.9132231503        1.6177487075       -1.1060435285
 H         -0.8703644186        0.6761012433       -1.6340205725
 N          1.2532480932        2.1247652674       -2.0138257022
 S          2.1055024538        0.7494115046       -1.5756458877
 O          3.1789804721        0.6551958368       -2.5422003838
 O          1.2190259092       -0.3829898118       -1.5010206409
 C          2.7960050156        1.1333087690        0.0243693496
 C          1.9753209390        1.1545007641        1.1341422143
 C          2.5225952237        1.5082152103        2.3583348468
 C          3.8666405398        1.8330078154        2.4531162544
 C          4.6762531253        1.8080831295        1.3272999633
 C          4.1366993568        1.4599784399        0.0999953310
 H          4.7258707999        1.4243453248       -0.8021493231
 H          5.7220457311        2.0594275994        1.4014114381
 H          4.2842221760        2.1057970173        3.4095006108
 H          1.8845456766        1.5242996602        3.2274849533
 H          0.9330054835        0.8903377945        1.0482566705
 H          1.9089591381        2.8763014461       -2.1789449018
 H          0.9308301545        4.4133877066       -0.6501520488
 H         -1.0360229870        4.9767454296        0.7302650950
 H         -2.8686967215        3.3670892552        1.0036775407
 H         -3.6575503787        0.8059089817       -1.0508329504
 C         -3.9841198319        1.0748673089        1.0483553449
 C         -5.2139447953        1.9157297377        0.8866849214
 C         -5.3367062079        0.4308582817        1.0455926453
 H         -5.7236565592        0.0389434779        1.9741377986
 H         -5.6000292789       -0.1596520047        0.1797884925
 H         -5.5219789639        2.5432161044        1.7094122916
 H         -5.4084817035        2.3365268484       -0.0883072638
 H         -3.4518220529        1.1172839457        1.9915398642
