  62
        -98.93852012
 C         -2.0653375217       -0.3213759002       -0.3406884198
 C         -3.0516671818       -0.9819611393        0.4268642507
 C         -4.2872974118       -0.2307392889        0.7202998399
 C         -4.3955609816        1.0339701407        0.2720560087
 C         -5.5618363015        1.9752052410        0.4153524977
 C         -6.7175023114        1.6354955402       -0.5398633321
 C         -7.0614345016        0.1510595902       -0.6309473407
 H         -7.8138115415        0.0325163695       -1.4151852807
 H         -6.1755635916       -0.4031488102       -0.9461417801
 C         -7.6193012118       -0.4678386186        0.6484582598
 H         -7.9018859519       -1.4972896588        0.4139139407
 H         -8.5264562117        0.0667366918        0.9389051892
 C         -6.6685800719       -0.4982178076        1.8469561699
 H         -7.1029275620       -1.1744421269        2.5891284305
 H         -6.6032858418        0.4774514428        2.3209265790
 C         -5.2720482519       -1.0295739480        1.5400629705
 H         -4.7632187820       -1.2380247172        2.4890072108
 H         -5.3601369420       -2.0019868785        1.0423229014
 H         -7.5992235314        2.1979256606       -0.2280322327
 H         -6.4380829813        1.9740071992       -1.5406519524
 H         -5.9031849016        1.9929607419        1.4460769077
 H         -5.1908186113        2.9730966907        0.1711192468
 O         -3.4084971914        1.6379047499       -0.4497337418
 C         -2.2294841615        0.9929537695       -0.7753868410
 O         -1.4334260313        1.6819974688       -1.4417284516
 O         -2.9139244120       -2.1611093090        0.8514718318
 C         -0.7795165717       -1.0616882306       -0.6667602290
 C          0.3680075083       -0.3681237301        0.0235808305
 C          0.4295211282       -0.4075584888        1.4147045005
 C          1.4389357682        0.2428350517        2.0974174000
 C          2.4115193883        0.9469692509        1.4083949794
 C          2.3631522785        0.9864837197        0.0218186094
 C          1.3525298184        0.3227061491       -0.6637747201
 H          1.3241374386        0.3742725082       -1.7404728101
 N          3.3495367286        1.6922414789       -0.6837083312
 S          4.9425223585        1.5442566592       -0.2027127909
 O          5.1944426985        2.3981788302        0.9315700284
 O          5.7226180387        1.8238078680       -1.3877987411
 C          5.1271901683       -0.1649878404        0.2767573807
 C          5.4730752181       -0.4840675993        1.5738371011
 C          5.5822982379       -1.8189409790        1.9299094523
 C          5.3415555179       -2.8065004198        0.9877264032
 C          4.9987221781       -2.4698544010       -0.3130588772
 C          4.8888160783       -1.1372404113       -0.6745961084
 H          4.6299597584       -0.8427803322       -1.6788494987
 H          4.8141278081       -3.2400446916       -1.0446485365
 H          5.4224546378       -3.8451660995        1.2671270742
 H          5.8507703178       -2.0833328180        2.9400378426
 H          5.6502964582        0.3150446614        2.2751465803
 H          3.2498664887        1.6573779080       -1.6868428011
 H          3.1946964983        1.4780909813        1.9244014090
 H          1.4696675181        0.2068046127        3.1757704800
 H         -0.3355132420       -0.9502554582        1.9526362109
 H         -0.8972700419       -2.0567093402       -0.2153150481
 C         -0.6007534116       -1.2212511920       -2.1611096388
 C          0.3319860183       -2.2696334426       -2.6878430778
 C         -1.1493845917       -2.4419429926       -2.8343447178
 H         -1.5885648916       -2.3351813634       -3.8150102179
 H         -1.6445247718       -3.1734313119       -2.2127270071
 H          0.9116842884       -2.0493658235       -3.5714443879
 H          0.8433509682       -2.8868860820       -1.9651849372
 H         -0.6751074814       -0.2835338825       -2.6997621597
