  62
        -98.94047206
 C         -0.6629177014       -1.4329223569        0.0153872526
 C         -1.3665551868       -0.5926139376        0.9072170461
 C         -2.3803112000        0.2953169357        0.3112016498
 C         -2.5389331563        0.3073380951       -1.0234961427
 C         -3.4848150001        1.1313988697       -1.8622284304
 C         -4.8987147140        1.3648871413       -1.3191021179
 C         -5.5042588165        0.1662100871       -0.5745523854
 H         -6.4842692534       -0.0600415408       -0.9987421359
 H         -4.8771103862       -0.7158194425       -0.7153936649
 C         -5.6875182446        0.4238495283        0.9225046308
 H         -6.0932941965        1.4284339149        1.0598485939
 H         -6.4242690541       -0.2820792219        1.3134799161
 C         -4.4238087049        0.2740114122        1.7684489729
 H         -4.1293894595       -0.7782670220        1.8109118515
 H         -4.6647450843        0.5790197238        2.7897798312
 C         -3.2063331265        1.0818689293        1.2881481680
 H         -3.5093030302        2.0429736140        0.8822694517
 H         -2.5581793537        1.2540164394        2.1515516989
 H         -4.9025703506        2.2325575763       -0.6617091140
 H         -5.5264949983        1.6168014892       -2.1756479219
 H         -3.0123715519        2.0966819554       -2.0611041338
 H         -3.5461664549        0.6037415386       -2.8173236020
 O         -1.7843727795       -0.4708794170       -1.8516150927
 C         -0.8502166579       -1.3680642987       -1.3641162603
 O         -0.2668478294       -2.0315082505       -2.2418361065
 H          1.5181205271       -0.0416888311        0.3783618718
 C          2.1503054886       -0.8081523486       -0.0471653908
 C          1.7143517750       -2.1272773799       -0.0350817873
 C          2.5423658702       -3.1056870204       -0.5687174361
 C          3.7664277195       -2.7615389450       -1.1158847251
 C          4.1926422653       -1.4467037940       -1.1330029715
 C          3.3745575676       -0.4605054792       -0.5921623722
 N          3.7549946847        0.8881301851       -0.6206919509
 S          3.2858089535        1.9309502831        0.5928791122
 O          4.1607127978        3.0749341512        0.4393394581
 O          3.3148914140        1.2934025799        1.8889321525
 C          1.6284575762        2.4341673653        0.1818944629
 C          0.7745337808        2.7735892382        1.2123477564
 C         -0.4874583034        3.2559795609        0.9077514999
 C         -0.8740056965        3.3842806059       -0.4165313028
 C         -0.0106193815        3.0265391229       -1.4401902384
 C          1.2570983694        2.5532536561       -1.1422510940
 H          1.9522422900        2.2687176798       -1.9148822887
 H         -0.3166247202        3.1174132393       -2.4703588807
 H         -1.8538144673        3.7701655861       -0.6493349814
 H         -1.1615483910        3.5291394341        1.7032686904
 H          1.1099971364        2.6445757090        2.2292575540
 H          4.6876327508        1.0752158731       -0.9573259842
 H          5.1454373425       -1.1802590182       -1.5643474823
 H          4.3985970561       -3.5298164824       -1.5346780330
 H          2.2277154278       -4.1362024939       -0.5651201229
 C          0.3595528251       -2.4109113658        0.5636695016
 H          0.4155531168       -2.2059613404        1.6436886728
 C         -0.1110443736       -3.8357976287        0.3590543055
 C          0.3178523563       -4.9178453226        1.3031703125
 C         -1.0949192882       -4.4192375929        1.3267651534
 H         -1.8764155038       -5.0596706566        0.9461013582
 H         -1.4047308958       -3.7964900010        2.1534881220
 H          0.5046955707       -5.9046340197        0.9071336943
 H          0.9665915192       -4.6397582836        2.1201080689
 H         -0.2314398193       -4.0862887838       -0.6891501953
 O         -1.1590240034       -0.5827701968        2.1510708465
