  62
        -98.94453125
 C          1.2676831389        1.7762744804       -0.6856307084
 C          2.4566738308        1.6510759813        0.0794076888
 C          3.3888580500        0.5964657917       -0.3270974965
 C          3.1099529231       -0.1556120924       -1.4065611466
 C          3.9377509309       -1.2960732379       -1.9315763195
 C          3.6401077487       -2.6266828568       -1.2259458542
 C          4.1971506680       -2.7439621909        0.1935585011
 H          4.1257429447       -3.7956856604        0.4782871334
 H          5.2544941662       -2.4751806387        0.1941036258
 C          3.4469354550       -1.9028473201        1.2362656222
 H          3.2643435793       -2.5090366162        2.1272455560
 H          2.4652232305       -1.6267782996        0.8413289641
 C          4.1870571749       -0.6437982602        1.6913166433
 H          3.5417392845       -0.1043574888        2.3897295229
 H          5.0974655387       -0.9294119111        2.2237156876
 C          4.5655240380        0.3190958505        0.5580951788
 H          4.8788953119        1.2662842987        1.0042061157
 H          5.3934740855       -0.0874285741       -0.0221120099
 H          2.5568004773       -2.7740729975       -1.1993465458
 H          4.0726667644       -3.4258249903       -1.8329690522
 H          4.9984637034       -1.0601209714       -1.8420138965
 H          3.6905580664       -1.4031498694       -2.9899925277
 O          2.0058769742        0.0491927479       -2.1658585251
 C          1.0199704830        0.9573204704       -1.7878152688
 O          0.0208542557        0.9308946715       -2.5300634799
 O          2.7150769267        2.3860701929        1.0708436401
 C          0.2283100922        2.7333633979       -0.1273736585
 C         -0.4710243208        2.0694567112        1.0366550123
 C         -0.8346632058        2.7783073280        2.1753122415
 C         -1.4478519504        2.1314510204        3.2345949131
 C         -1.6930190288        0.7708241842        3.1891882078
 C         -1.3162156198        0.0485394165        2.0608124830
 C         -0.7332293819        0.7086320376        0.9905080474
 H         -0.4347004481        0.1410973501        0.1252178988
 N         -1.4822375378       -1.3367193211        2.0084803324
 S         -1.4529238326       -2.2447749251        0.6120635015
 O         -1.7879737598       -3.5764583104        1.0709248417
 O         -0.1868992912       -2.1096887751       -0.0625499751
 C         -2.8041147674       -1.6232909995       -0.3714258634
 C         -4.0789162123       -1.9254546358        0.0721840495
 C         -5.1700774955       -1.4557784115       -0.6379613632
 C         -4.9707944651       -0.6930195471       -1.7796710508
 C         -3.6877579096       -0.4029265629       -2.2132778522
 C         -2.5889299409       -0.8679431386       -1.5048650362
 H         -1.5857757820       -0.6367538348       -1.8289985065
 H         -3.5218059979        0.1882824110       -3.0994814374
 H         -5.8185858465       -0.3248909039       -2.3355504162
 H         -6.1688242068       -1.6845059174       -0.3026690627
 H         -4.1892383986       -2.5378195825        0.9522965310
 H         -2.0078893436       -1.7597154303        2.7563502402
 H         -2.1494827847        0.2651150039        4.0258895533
 H         -1.7266791738        2.6913879111        4.1142970579
 H         -0.6106952148        3.8327392495        2.2405087930
 H          0.7989160677        3.5842730599        0.2796106811
 C         -0.7419013169        3.2812938631       -1.1610304344
 C         -2.1499005755        2.7914959994       -1.2909342205
 C         -1.8843239285        4.1612080724       -0.7470740705
 H         -2.1202839859        5.0159873481       -1.3625004879
 H         -2.0433234658        4.3177488604        0.3083706625
 H         -2.5542375307        2.6922806540       -2.2858331223
 H         -2.4835045191        2.0233693089       -0.6096400053
 H         -0.2383568852        3.5421573257       -2.0856066289
