  62
        -98.94503219
 C         -1.5453684082       -0.7479450487       -0.4620839848
 C         -2.8327749197       -1.3315160679       -0.5072873649
 C         -3.9584370139       -0.3929322822       -0.6090600195
 C         -3.7095500884        0.9285250029       -0.6651296753
 C         -4.7634855039        1.9961778724       -0.7105109438
 C         -5.1409280475        2.4636354614        0.7021983274
 C         -5.4468840941        1.3206781007        1.6701290000
 H         -4.5341741468        0.7457505208        1.8427515465
 H         -5.7289431988        1.7693265231        2.6251355068
 C         -6.5604341488        0.3733247578        1.2021806086
 H         -7.2305487399        0.1779139409        2.0421159399
 H         -7.1518401658        0.8532206132        0.4215441764
 C         -6.0677619092       -0.9853524575        0.7004849626
 H         -5.4012207350       -1.4309154276        1.4434448183
 H         -6.9335151555       -1.6457308850        0.6015263817
 C         -5.3435212404       -0.9747347729       -0.6516979124
 H         -5.2218863845       -2.0141720944       -0.9706964974
 H         -5.9566721727       -0.4582797204       -1.3930657711
 H         -4.3087316558        3.0424723622        1.1091888666
 H         -6.0087850529        3.1214956490        0.6280605488
 H         -4.3691798757        2.8453422379       -1.2709266741
 H         -5.6423854808        1.6111919548       -1.2239425017
 O         -2.4570451220        1.4506408532       -0.6373101541
 C         -1.3417163540        0.6312346195       -0.5255799969
 O         -0.2567382951        1.2381601848       -0.4955217609
 O         -3.0315819495       -2.5760214285       -0.4585597053
 C         -0.3292015352       -1.6477635538       -0.3494350131
 C          0.5021209391       -1.2554274923        0.8462003720
 C         -0.1266173198       -1.0211278868        2.0668375692
 C          0.6015685786       -0.6332138386        3.1739939918
 C          1.9721865528       -0.4597242130        3.0880158261
 C          2.6120826069       -0.7099113964        1.8808703279
 C          1.8791515266       -1.1200023963        0.7748122649
 H          2.4042650182       -1.3334867571       -0.1399222326
 N          3.9995440144       -0.5630862404        1.7659497560
 S          4.7134861262       -0.1649782761        0.3120401137
 O          4.7737987702       -1.3245499115       -0.5429588980
 O          5.9931124637        0.3955743220        0.6926265589
 C          3.7004964704        1.0969654989       -0.4371951896
 C          3.3862769618        2.2216323298        0.2978111772
 C          2.6163536686        3.2109735679       -0.2896938567
 C          2.1783292292        3.0624284523       -1.5955381618
 C          2.5072142356        1.9303780807       -2.3222640502
 C          3.2744720223        0.9360614188       -1.7390219085
 H          3.5454398666        0.0350166410       -2.2670388301
 H          2.1595113378        1.8142517552       -3.3368699355
 H          1.5703702230        3.8298739542       -2.0476901768
 H          2.3519782784        4.0913716091        0.2737240721
 H          3.7423138074        2.3131002430        1.3113404970
 H          4.4590537310       -0.1316113483        2.5533655635
 H          2.5407115560       -0.1403159668        3.9478376433
 H          0.0979205166       -0.4517714023        4.1116538563
 H         -1.1996335794       -1.1403776461        2.1328711309
 H         -0.7230183586       -2.6620340279       -0.1850002525
 C          0.4503693017       -1.6297045693       -1.6478941722
 C          1.2579641184       -2.8207903263       -2.0659051644
 C         -0.0087896313       -2.4817518610       -2.7912911636
 H          0.0584324516       -2.0826115911       -3.7921892213
 H         -0.8748619388       -3.1064043721       -2.6277394267
 H          2.2028068058       -2.6579290121       -2.5632066720
 H          1.2539622597       -3.6811734693       -1.4136183369
 H          0.8354444119       -0.6427490764       -1.8812518785
