  62
        -98.94835037
 C         -1.2282416893       -1.4953073110        0.5003852799
 C         -2.2005706995       -1.2382364812       -0.4954697501
 C         -3.2875972099       -0.3284277219       -0.1079277499
 C         -3.2951360302        0.2054310678        1.1269531503
 C         -4.3061240408        1.1952701371        1.6273368705
 C         -3.8386078715        2.6368725274        1.3831904709
 C         -3.3587369116        2.9022849081       -0.0442010790
 H         -3.0958099521        3.9611326982       -0.1042927787
 H         -2.4355123913        2.3436100486       -0.2209425391
 C         -4.3858574314        2.5667514878       -1.1348845791
 H         -4.3965819018        3.3802021580       -1.8634676089
 H         -5.3834763114        2.5098871972       -0.6972889191
 C         -4.0970849207        1.2794353682       -1.9093262694
 H         -3.0610311707        1.2889153988       -2.2586881294
 H         -4.7413128707        1.2624220581       -2.7925990395
 C         -4.3346475001       -0.0275186121       -1.1425285998
 H         -5.3307300401       -0.0174989128       -0.6955620098
 H         -4.2872344496       -0.8485637419       -1.8639100100
 H         -4.6621101319        3.3122755669        1.6237604911
 H         -3.0095067116        2.8540422977        2.0610996910
 H         -5.2568521707        1.0209368368        1.1272382105
 H         -4.4359290007        1.0430325867        2.7003397305
 O         -2.3434129201       -0.0643433820        2.0565421002
 C         -1.2720488597       -0.8889250314        1.7550439300
 O         -0.4361744897       -1.0059873012        2.6756537800
 H          0.4242466998        0.2301551300       -0.1549835596
 C          0.9350091601       -0.3510242295       -0.9069197698
 C          0.7890826608       -1.7306909596       -0.9210273902
 C          1.4335165212       -2.4521015989       -1.9181922903
 C          2.1889274109       -1.7968518583       -2.8758278101
 C          2.3413751902       -0.4220021682       -2.8484518597
 C          1.7054539598        0.3072006412       -1.8505764696
 N          1.8289843791        1.7028704012       -1.7634915492
 S          1.9359357687        2.4030361308       -0.2457513190
 O          0.6408573586        2.4442647200        0.3851572110
 O          2.5560363780        3.6882663612       -0.4909756286
 C          3.0657689092        1.3523791312        0.6509254808
 C          2.6236732096        0.5177250607        1.6563928205
 C          3.5366504600       -0.3224550990        2.2760597603
 C          4.8657531500       -0.3146023582        1.8847024303
 C          5.2967145496        0.5377316523        0.8788936906
 C          4.3897119492        1.3764212020        0.2538809708
 H          4.6866198488        2.0611356823       -0.5239425790
 H          6.3322897296        0.5474022629        0.5796439406
 H          5.5684637103       -0.9742939780        2.3687440802
 H          3.1914857803       -0.9804331494        3.0578883801
 H          1.5843268596        0.5195457001        1.9472767305
 H          2.4790827989        2.1163875617       -2.4155425790
 H          2.9357891799        0.0840094823       -3.5933960296
 H          2.6752671012       -2.3675412778       -3.6521486803
 H          1.3373785318       -3.5249904590       -1.9504156106
 C         -0.0291249589       -2.3671410003        0.1781114796
 H          0.5911336011       -2.3774697102        1.0875186797
 C         -0.4591789582       -3.7854050304       -0.1335693608
 C          0.4325990224       -4.9387698301        0.2127753289
 C         -0.8176494477       -4.6952538609        1.0017101390
 H         -1.6499762174       -5.3715409213        0.8779179588
 H         -0.7245603479       -4.2978620711        2.0023017991
 H          1.3778864823       -4.7172466997        0.6847357990
 H          0.4576638229       -5.7886235099       -0.4525173713
 H         -1.0576812781       -3.8493378805       -1.0345850008
 O         -2.1628434192       -1.7370175909       -1.6507312302
