  62
        -98.93843157
 C         -2.2573578689       -0.8606308139        0.2062846399
 C         -1.6034356118       -0.1909154449       -0.8560277293
 C         -1.9842393587        1.2144923414       -1.0590655739
 C         -2.8791149724        1.7832762581       -0.2323487170
 C         -3.3658508029        3.2000578373       -0.3309342244
 C         -2.5276795821        4.1574517985        0.5255528303
 C         -1.0197357559        4.0217006011        0.3141367919
 H         -0.5354113625        4.7853923186        0.9278774287
 H         -0.6831975788        3.0539262293        0.6937354616
 C         -0.5639029700        4.1727693483       -1.1438311919
 H         -1.3381672109        4.6725453269       -1.7281149767
 H          0.3231157371        4.8095612964       -1.1648716100
 C         -0.1806759851        2.8528548647       -1.8158560662
 H          0.4809291388        2.2962170851       -1.1474409950
 H          0.3802886699        3.0811597590       -2.7262577908
 C         -1.3502492010        1.9416746757       -2.2114754510
 H         -2.0976887613        2.5192304578       -2.7604155061
 H         -0.9592494561        1.1654118495       -2.8756276933
 H         -2.8375718885        5.1800505078        0.2995764158
 H         -2.7434560655        3.9621320056        1.5787662308
 H         -3.3368197999        3.5120092957       -1.3734027424
 H         -4.3999927305        3.2286273100        0.0182657619
 O         -3.4435449747        1.1238281008        0.8134601258
 C         -3.1364561222       -0.2021418262        1.0636894070
 O         -3.7074873793       -0.6833103981        2.0669516408
 H         -0.3815591452       -1.0677048618        2.0464017786
 C          0.1909775479       -1.7233385844        1.3999330128
 C         -0.4862973291       -2.5334247002        0.4891731707
 C          0.2804651391       -3.3578641021       -0.3238469526
 C          1.6645722261       -3.3431923095       -0.2489267836
 C          2.3250162494       -2.4873395927        0.6112923649
 C          1.5705587930       -1.6689611433        1.4401398209
 N          2.2422287539       -0.6999560657        2.2452752972
 S          2.1915114899        0.8006286585        1.4618649750
 O          2.9032540686        1.7191741504        2.3264402189
 O          0.8321028858        1.1829327115        1.1458797368
 C          3.1322849996        0.4858901835       -0.0112150527
 C          4.5042061017        0.6370926429        0.0522743533
 C          5.2629244816        0.3492730990       -1.0702315638
 C          4.6386544583       -0.0880379620       -2.2292283572
 C          3.2613309840       -0.2376915534       -2.2737732529
 C          2.4936894196        0.0482271950       -1.1547733582
 H          1.4206531869       -0.0725282714       -1.1639493293
 H          2.7713957576       -0.5824301930       -3.1700962940
 H          5.2286074215       -0.3150027058       -3.1033007490
 H          6.3344818251        0.4635460388       -1.0376830399
 H          4.9398675617        0.9817386359        0.9757109491
 H          1.8091593208       -0.5827937256        3.1527162916
 H          3.4009122745       -2.4346676087        0.6447826797
 H          2.2344235433       -3.9901113733       -0.8978181219
 H         -0.1790310664       -4.0002408530       -1.0523327249
 C         -1.9826996465       -2.3364434865        0.4908005472
 H         -2.3204355009       -2.4958444637        1.5291833954
 C         -2.9159292622       -3.1681322256       -0.3760321923
 C         -2.6646502512       -3.5416014638       -1.8032062178
 C         -2.7187355506       -4.6070192880       -0.7469719630
 H         -3.5881325382       -5.2476853719       -0.7254185152
 H         -1.8123412124       -5.1029275106       -0.4419804191
 H         -3.4929136523       -3.4664416702       -2.4931645716
 H         -1.7209914261       -3.2574332750       -2.2390544136
 H         -3.9401715817       -2.8835282365       -0.1415580600
 O         -0.7590906041       -0.7361005126       -1.6111663866
