  62
        -98.94479851
 C         -1.6875578699       -1.0117397497       -0.6951049693
 C         -1.6594911798        0.1103183000        0.1691566110
 C         -2.9276157797        0.4272964898        0.8405850912
 C         -4.0067827798       -0.3506998901        0.6435607710
 C         -5.3594762997       -0.1688185703        1.2769553812
 C         -6.2582312798        0.8415751699        0.5508477316
 C         -5.8571807997        2.3077397099        0.7185684020
 H         -5.7419776697        2.5323947995        1.7794266420
 H         -6.6875225598        2.9110364900        0.3462464322
 C         -4.5808980098        2.7060479501       -0.0356423980
 H         -4.7483417598        3.6486077702       -0.5615647777
 H         -4.3554114598        1.9518473003       -0.7928983483
 C         -3.3519213197        2.8958256798        0.8538162620
 H         -3.5150859997        3.7370763096        1.5311902722
 H         -2.4996010898        3.1388653200        0.2145503520
 C         -2.9808106797        1.6626016296        1.6880616416
 H         -3.6900539196        1.5341066593        2.5057023116
 H         -1.9849928296        1.8175914794        2.1120612415
 H         -7.2702288097        0.7170614998        0.9429829016
 H         -6.2800316398        0.5887430902       -0.5116314185
 H         -5.2388860996        0.1313758694        2.3183376913
 H         -5.8482408997       -1.1451974703        1.2512311009
 O         -3.9826074498       -1.4411004399       -0.1683141593
 C         -2.8345513899       -1.7906934397       -0.8595534595
 O         -2.9587118599       -2.8041053495       -1.5771536298
 O         -0.6419880698        0.8215765599        0.3711720011
 C         -0.4401016999       -1.4535258095       -1.4447287696
 C          0.5400312902       -2.0115442398       -0.4404743198
 C          0.2327047002       -3.2091087600        0.2017733899
 C          1.0896226003       -3.7426485903        1.1442479396
 C          2.2605813303       -3.0835862304        1.4806184597
 C          2.5723952702       -1.8854152702        0.8525830501
 C          1.7210030802       -1.3664051799       -0.1142104297
 H          1.9834281402       -0.4453689598       -0.6021604094
 N          3.7572477803       -1.1891117703        1.1541968002
 S          3.6242410403        0.4262572895        1.6141963907
 O          4.8847823804        0.7081800493        2.2716628707
 O          2.4392943604        0.6492967193        2.4084023109
 C          3.5663593302        1.3309782600        0.0834681410
 C          2.4276455902        2.0281215201       -0.2691565887
 C          2.4183925001        2.7188414905       -1.4716239285
 C          3.5361234000        2.7003629307       -2.2917784786
 C          4.6719471601        1.9969336506       -1.9189600889
 C          4.6908273902        1.3059701302       -0.7183992391
 H          5.5531451902        0.7524952501       -0.3860114893
 H          5.5383481100        1.9839309908       -2.5603567090
 H          3.5192452600        3.2364381710       -3.2278588684
 H          1.5322922301        3.2606631306       -1.7631335483
 H          1.5636478302        1.9900043899        0.3765118813
 H          4.3633689903       -1.6763208805        1.8000651700
 H          2.9256954603       -3.4936070506        2.2260915496
 H          0.8420148603       -4.6748293205        1.6298296494
 H         -0.6906795398       -3.7129900099       -0.0503586302
 H         -0.7580575700       -2.2785707793       -2.0974335498
 C          0.1247764200       -0.3384631593       -2.2983211493
 C          1.1161933699       -0.6580845789       -3.3753421194
 C         -0.2752192901       -0.2357977088       -3.7378656892
 H         -0.4236936901        0.7460423613       -4.1613424589
 H         -0.9533107101       -0.9835098387       -4.1232587794
 H          1.9266927399        0.0336430911       -3.5482962093
 H          1.3828556199       -1.6947510889       -3.5146453898
 H          0.2531766101        0.5881367006       -1.7534673690
