  62
        -98.92870239
 C         -2.3716975348       -1.0904521666        0.3632208992
 C         -2.9139285488       -0.0850761334        1.2031099786
 C         -3.7489775449        0.9357456090        0.5527418120
 C         -3.9207843967        0.8850859268       -0.7804082639
 C         -4.6788085411        1.8883210688       -1.6026154815
 C         -3.8274594743        3.1580535389       -1.8047871627
 C         -4.3951979486        4.4104190911       -1.1362773385
 H         -3.6160818493        5.1752825198       -1.1599004019
 H         -5.2357729800        4.7781669913       -1.7284334918
 C         -4.8800028882        4.2362431675        0.3062360049
 H         -5.8691800426        3.7760397574        0.3080534244
 H         -5.0026404958        5.2380155044        0.7234296340
 C         -3.9602246128        3.4270587107        1.2298086059
 H         -2.9326328754        3.4510569913        0.8663764075
 H         -3.9611809680        3.9034770125        2.2122877201
 C         -4.3916916580        1.9638859102        1.4425430970
 H         -4.1184879130        1.6637070504        2.4585539253
 H         -5.4795423448        1.8884752109        1.3595100931
 H         -2.8237193937        2.9615254810       -1.4220394478
 H         -3.7214886790        3.3585607592       -2.8719686941
 H         -5.6185777540        2.1309357179       -1.1113971055
 H         -4.8970207700        1.4209476603       -2.5630677810
 O         -3.3427228884       -0.0633820423       -1.5603483926
 C         -2.5522281390       -1.0718715542       -1.0208317580
 O         -2.0898385838       -1.8535440246       -1.8704463674
 O         -2.7057782581       -0.0420465483        2.4459112534
 C         -1.5163066577       -2.1623477060        1.0153724784
 C         -0.2168580122       -2.3196101540        0.2664305039
 C          0.1451847051       -3.4769443501       -0.4084757615
 C          1.3510240706       -3.5427614519       -1.0847218701
 C          2.2172231044       -2.4658211694       -1.1025878317
 C          1.8679623937       -1.3040089278       -0.4257627941
 C          0.6629622013       -1.2436533455        0.2582711789
 H          0.3866327816       -0.3378303668        0.7848197233
 N          2.7312114557       -0.1916396916       -0.4519214757
 S          4.3826125674       -0.4914518946       -0.2545282631
 O          4.9265866417       -0.9082555543       -1.5224966916
 O          4.5942415056       -1.3985398703        0.8514513007
 C          4.9829008326        1.1363873025        0.1506506770
 C          5.1947239344        2.0391465390       -0.8742437730
 C          5.6421768456        3.3128979478       -0.5620407994
 C          5.8696603143        3.6605527842        0.7614058354
 C          5.6541616904        2.7430856612        1.7787067501
 C          5.2047245651        1.4678129628        1.4737194226
 H          5.0318767671        0.7198283618        2.2309553570
 H          5.8346934011        3.0152092848        2.8061762234
 H          6.2199402935        4.6520085139        1.0013762136
 H          5.8134887991        4.0283594849       -1.3500761756
 H          5.0144982066        1.7213682319       -1.8879049618
 H          2.4212679593        0.5425570889        0.1701516262
 H          3.1579572550       -2.5085896909       -1.6275217861
 H          1.6187845410       -4.4461037558       -1.6122046904
 H         -0.5263738849       -4.3193481248       -0.4255381407
 H         -1.2820023417       -1.7518641388        2.0120708761
 C         -2.2356409592       -3.4806600561        1.2567413612
 C         -3.7077922564       -3.5119593429        1.5364047250
 C         -3.1751359868       -4.0886350438        0.2608180487
 H         -3.1726644255       -5.1630620087        0.1477073657
 H         -3.3456735478       -3.5547606530       -0.6605305857
 H         -4.0726767112       -4.1870127016        2.2958358577
 H         -4.2447988854       -2.5757357299        1.4888203898
 H         -1.6236060137       -4.1708077476        1.8299254412
