  62
        -98.93675791
 C          2.4192315816        1.1523424413        0.1504023988
 C          2.4740521813       -0.0532353432       -0.5921621716
 C          3.8238775006       -0.5377757024       -0.9263695494
 C          4.8999368703        0.1614533556       -0.5250208204
 C          6.3257733482       -0.2492965498       -0.7494722603
 C          6.8516974711       -1.0875734553        0.4242540143
 C          5.9215842641       -2.2297811633        0.8334382665
 H          4.9956526298       -1.8103131172        1.2337774132
 H          6.4085956235       -2.7691513357        1.6487309621
 C          5.5837751795       -3.2102903566       -0.2983297579
 H          5.6678813630       -4.2293962429        0.0848136608
 H          6.3087463615       -3.1070820194       -1.1064900183
 C          4.1702326470       -3.0632387595       -0.8648098654
 H          3.4434532854       -3.0712995609       -0.0483717306
 H          3.9639647424       -3.9327550411       -1.4945550209
 C          3.9199413481       -1.8124577933       -1.7167147249
 H          2.9497768362       -1.9342635018       -2.2075222324
 H          4.6882181665       -1.7315143154       -2.4884150663
 H          6.9855344749       -0.4299035570        1.2862400484
 H          7.8279353401       -1.4912214912        0.1498349440
 H          6.9331969971        0.6526128473       -0.8414701859
 H          6.3933124258       -0.8174115431       -1.6751052187
 O          4.8078618443        1.3117949207        0.1905093068
 C          3.5750137430        1.8210773715        0.5623413702
 O          3.6385523447        2.8573417662        1.2536517664
 O          1.4625797158       -0.7031446739       -0.9619576430
 C          1.0981058286        1.7593301200        0.5901930022
 C          0.1797264818        0.6860540341        1.1206044506
 C          0.5769265679       -0.0347944303        2.2444830988
 C         -0.2303720714       -1.0230172519        2.7722890449
 C         -1.4609529737       -1.3005876250        2.2032322518
 C         -1.8637637648       -0.5913115223        1.0785513794
 C         -1.0448819253        0.3936153888        0.5437657331
 H         -1.3747762711        0.9112466881       -0.3412758369
 N         -3.0934387907       -0.8682593530        0.4599959866
 S         -3.9519425459        0.4076923473       -0.2321653908
 O         -3.4711715285        0.6354538849       -1.5713764356
 O         -3.9379608941        1.5514935281        0.6530168209
 C         -5.5859890949       -0.3048017920       -0.2964704336
 C         -6.4998281850       -0.0027325949        0.6953438774
 C         -7.7559166156       -0.5872344720        0.6502009759
 C         -8.0738926023       -1.4614886960       -0.3781882800
 C         -7.1463714603       -1.7544167744       -1.3671807585
 C         -5.8892455852       -1.1726581792       -1.3287781594
 H         -5.1392055074       -1.3629833401       -2.0788388667
 H         -7.3980996350       -2.4321948209       -2.1668717319
 H         -9.0518253417       -1.9151534081       -0.4111480593
 H         -8.4802279028       -0.3590233717        1.4154231495
 H         -6.2107977317        0.6885535904        1.4706032911
 H         -3.6899012618       -1.4670407785        1.0141934057
 H         -2.0960287543       -2.0688747513        2.6176774115
 H          0.0950722063       -1.5764428859        3.6405874084
 H          1.5360963972        0.1884719605        2.6933931781
 H          1.3554690536        2.4232290908        1.4332594549
 C          0.4359180273        2.6366600652       -0.4615159353
 C          1.2507327206        3.4168054823       -1.4481383850
 C          0.4095210986        2.2679180126       -1.9128448256
 H         -0.4901194005        2.4755715931       -2.4745965735
 H          0.8994859397        1.3523360583       -2.2041858100
 H          0.9357078177        4.4200854330       -1.6925136565
 H          2.3232379210        3.2887836989       -1.4225778561
 H         -0.4502047645        3.1316473182       -0.0725441571
