  62
        -98.94455384
 C          1.7134127600        1.0891432798       -0.0022091906
 C          2.9257026102        1.0806426199        0.7393592490
 C          4.0919556500        0.4850481597        0.0806942287
 C          3.9775093395        0.0133502396       -1.1736125212
 C          5.0795155092       -0.5937690006       -1.9983080215
 C          5.3130669193       -2.0858880306       -1.7253799114
 C          5.9815728797       -2.4047732304       -0.3875236116
 H          6.2806636097       -3.4543209604       -0.4212309315
 H          6.8904256998       -1.8108050504       -0.2861420320
 C          5.0825562902       -2.1874357802        0.8378427287
 H          4.0386401100       -2.1325584102        0.5196816191
 H          5.1660115904       -3.0464042701        1.5075653088
 C          5.4163207205       -0.9406574701        1.6574013984
 H          6.4125623206       -1.0448734401        2.0928464881
 H          4.6964367208       -0.8677867599        2.4766561787
 C          5.3651408002        0.3710408598        0.8629406983
 H          5.3964524805        1.2024827399        1.5712585281
 H          6.2271405900        0.4431286597        0.1999482379
 H          4.3547721492       -2.6071022706       -1.7869688610
 H          5.9506581690       -2.4680280707       -2.5259651715
 H          4.7863913189       -0.4767795907       -3.0439055414
 H          6.0061841093       -0.0433523106       -1.8334651719
 O          2.8076422493        0.0563828095       -1.8602186708
 C          1.6465988195        0.5650062496       -1.2931014905
 O          0.6566015292        0.4813948895       -2.0489666401
 O          3.0271955506        1.5612482000        1.8992136489
 C          0.5090340802        1.7087976699        0.6854357997
 C         -0.4104802096        0.6733601300        1.2865130502
 C         -0.7905770891        0.7379107603        2.6217537503
 C         -1.6751083290       -0.1866108796        3.1509851408
 C         -2.1955725693       -1.1968981297        2.3615381111
 C         -1.8125540997       -1.2741915499        1.0296686210
 C         -0.9352162899       -0.3411674700        0.4988525005
 H         -0.6573856303       -0.4010248602       -0.5430246996
 N         -2.3535340901       -2.2913989400        0.2063808313
 S         -3.9783638402       -2.0715464000       -0.1508883982
 O         -4.7483186698       -2.2925710098        1.0466028721
 O         -4.2633629306       -2.9459874902       -1.2656809479
 C         -4.0874472403       -0.3624724101       -0.6467818484
 C         -4.3783464199        0.5995262800        0.2991986416
 C         -4.3663917200        1.9322287600       -0.0785195486
 C         -4.0603467205        2.2769405798       -1.3859088888
 C         -3.7669215308        1.2988271496       -2.3233605287
 C         -3.7745670107       -0.0351794703       -1.9506978785
 H         -3.5519672510       -0.8250741304       -2.6505484585
 H         -3.5228480412        1.5699457195       -3.3381188488
 H         -4.0505350005        3.3149589497       -1.6800709489
 H         -4.5896043897        2.6958001301        0.6489740714
 H         -4.6111326196        0.2888107502        1.3044175317
 H         -1.8465036804       -2.3851108802       -0.6636981489
 H         -2.8985314492       -1.9164652897        2.7488866014
 H         -1.9621477386       -0.1209298295        4.1893154109
 H         -0.3823625989        1.5161816003        3.2494290301
 H          0.9290434205        2.3025103800        1.5084311195
 C         -0.2913145701        2.6330488998       -0.2134749101
 C         -1.0614005498        3.7596666399        0.4036681800
 C          0.1675899399        4.0459735198       -0.4047594905
 H          0.0559651496        4.4943764496       -1.3803313105
 H          1.0626482701        4.3545743598        0.1158244992
 H         -2.0219631999        4.0136731399       -0.0149366197
 H         -1.0003021994        3.8801993301        1.4743769200
 H         -0.7276471604        2.1294470297       -1.0665482099
