  62
        -98.93873926
 C          2.7408858250        0.7154903205       -0.1415140878
 C          2.3591804311       -0.2189248273       -1.1378044017
 C          2.6463884390       -1.6323646587       -0.8297401218
 C          3.2611517033       -1.9552048901        0.3207420404
 C          3.5637993070       -3.3526027140        0.7770747754
 C          2.4227270852       -3.9179682540        1.6333914253
 C          1.0376555903       -3.7612199176        1.0048359692
 H          0.3209311878       -4.2401652258        1.6757015155
 H          0.7723382310       -2.7018733740        0.9597353000
 C          0.9049741781       -4.3658905068       -0.3994886675
 H          1.7130428740       -5.0772185230       -0.5773909226
 H         -0.0351006498       -4.9185378979       -0.4544690303
 C          0.8767927077       -3.3326540367       -1.5277493490
 H          0.5425784742       -3.8333259753       -2.4411713483
 H          0.1423252501       -2.5573452788       -1.2922476875
 C          2.2170898696       -2.6553260707       -1.8433704071
 H          2.0999044638       -2.1115565242       -2.7857127803
 H          2.9917443841       -3.4140954707       -1.9778364616
 H          2.6217276159       -4.9757959793        1.8158830183
 H          2.4228363514       -3.3997771719        2.5950975158
 H          4.4764069179       -3.3267688602        1.3751926566
 H          3.7281442680       -3.9853120032       -0.0928965909
 O          3.6496478734       -1.0276090704        1.2339665490
 C          3.3701108257        0.3130974674        1.0395912658
 O          3.7442147409        1.0522003876        1.9736296706
 O          1.8220103009        0.0802001703       -2.2347876257
 C          2.4373926246        2.2042056601       -0.2069389466
 C          1.1799636546        2.5035011660        0.5716135921
 C          1.0935448284        3.6189620018        1.3963963556
 C         -0.0724266239        3.8889479787        2.0908548856
 C         -1.1701889791        3.0561346164        1.9749164658
 C         -1.0875805931        1.9261868000        1.1672660749
 C          0.0826669723        1.6607680617        0.4720933109
 H          0.1341339437        0.7863413846       -0.1587116712
 N         -2.1659764877        1.0330551066        1.0744405252
 S         -2.3527062732        0.1179705828       -0.3328667696
 O         -1.4593476114       -1.0092500487       -0.2727419748
 O         -2.2595196996        0.9757645781       -1.4921342774
 C         -4.0342420974       -0.4350604451       -0.1192402446
 C         -5.0621284425        0.3057826218       -0.6717043525
 C         -6.3695546281       -0.1103819571       -0.4760170882
 C         -6.6258262847       -1.2531875115        0.2667547997
 C         -5.5839117871       -1.9876713193        0.8132312496
 C         -4.2742216136       -1.5770138948        0.6208502288
 H         -3.4314153755       -2.1189353900        1.0176590544
 H         -5.7866147433       -2.8777516577        1.3866440797
 H         -7.6439619063       -1.5753999620        0.4176149121
 H         -7.1811239678        0.4562789052       -0.9031461233
 H         -4.8139735847        1.1803307476       -1.2515189865
 H         -3.0403283684        1.4275026154        1.3925007021
 H         -2.0803058408        3.2677796399        2.5149892745
 H         -0.1284255567        4.7589022929        2.7273701194
 H          1.9520400629        4.2659796384        1.5013109617
 H          3.2710624206        2.7023054395        0.3158150667
 C          2.3888183018        2.7697825898       -1.6182099020
 C          1.1125758946        3.0325117978       -2.3533206233
 C          1.9355543709        4.1804310502       -1.8556893224
 H          2.4737300072        4.7784289426       -2.5754324802
 H          1.5580051273        4.7351778753       -1.0102884974
 H          1.0946996140        2.8179269691       -3.4110265119
 H          0.1797760793        2.8023879031       -1.8601378884
 H          3.2213686079        2.4182945778       -2.2189417704
