  62
        -98.93912734
 C          2.6673663822        1.2224768412       -0.3763364910
 C          2.5060777214       -0.0144618774       -1.0466268566
 C          3.6683537574       -0.9152332129       -1.0157433052
 C          4.7901450783       -0.5286289888       -0.3823368686
 C          6.0203319614       -1.3729737175       -0.2220783396
 C          5.9664934846       -2.1898561434        1.0767250211
 C          4.6516480173       -2.9430141688        1.2801182310
 H          4.7403214840       -3.5051627125        2.2123640955
 H          3.8431703334       -2.2208563164        1.4180095985
 C          4.2853836729       -3.9014888033        0.1382975545
 H          5.1698627651       -4.1168112187       -0.4624112766
 H          3.9483092058       -4.8463136861        0.5698003936
 C          3.1627304479       -3.4027806658       -0.7734090176
 H          2.8392652770       -4.2373431402       -1.4011921604
 H          2.3057365482       -3.0978390563       -0.1670028596
 C          3.5292087756       -2.2423263065       -1.7070408859
 H          4.4383454323       -2.4868768894       -2.2598281025
 H          2.7114752638       -2.1221795698       -2.4234906135
 H          6.1038751025       -1.5089638449        1.9199456598
 H          6.7967835853       -2.8984197613        1.0736035926
 H          6.1127364621       -2.0380975792       -1.0783679831
 H          6.8889339308       -0.7131868916       -0.1898879592
 O          4.9128180207        0.6736732083        0.2363767680
 C          3.8556425772        1.5657616560        0.2725052867
 O          4.0944265625        2.6187054763        0.8977519663
 H         -0.8058249842        0.9319531976       -0.9716428391
 C         -0.6655895600        1.0001904397        0.0954975848
 C          0.4576580412        1.6346611273        0.6011740317
 C          0.6273004153        1.6910629232        1.9819537366
 C         -0.3045229370        1.1245332959        2.8309412934
 C         -1.4183742609        0.4788344693        2.3224965878
 C         -1.5929853802        0.4108754269        0.9470196488
 N         -2.7009494273       -0.2765193002        0.4156837768
 S         -4.2174266472        0.0542975238        1.0792092583
 O         -4.4393740986        1.4831461225        1.1286220988
 O         -4.3312086390       -0.6411163690        2.3366209754
 C         -5.2850318996       -0.7015993417       -0.1301347532
 C         -5.8279227429        0.0763309329       -1.1349685456
 C         -6.6344817855       -0.5264905646       -2.0874063707
 C         -6.8799902568       -1.8897376419       -2.0209549269
 C         -6.3280329841       -2.6571910877       -1.0059606354
 C         -5.5215439435       -2.0606416659       -0.0499405678
 H         -5.0786313002       -2.6150436748        0.7608022417
 H         -6.5233184686       -3.7162785175       -0.9565802282
 H         -7.5079337462       -2.3564265009       -2.7634194052
 H         -7.0674754565        0.0678561959       -2.8758493129
 H         -5.6180023066        1.1339948078       -1.1425589656
 H         -2.7303226670       -0.2107558437       -0.5930066350
 H         -2.1530640295        0.0327131660        2.9730778197
 H         -0.1628403789        1.1814915927        3.9000603384
 H          1.5061064540        2.1808388447        2.3793787151
 C          1.5258842390        2.2237076753       -0.2886533361
 H          1.9381934414        3.1058136928        0.2193620314
 C          1.0279647615        2.6397598448       -1.6567462293
 C          0.1461222195        3.8450906054       -1.7784036136
 C          1.5584135637        3.8956110509       -2.2770006201
 H          1.7289649476        3.9106651001       -3.3430316232
 H          2.2809586282        4.4661153277       -1.7117818721
 H         -0.6544026352        3.8298982051       -2.5022212478
 H         -0.0924659116        4.3804118248       -0.8715161374
 H          0.8411240025        1.8038614666       -2.3188352612
 O          1.4552468184       -0.3586239296       -1.6478343676
