  62
        -98.94842358
 C         -0.7773444799       -1.2282611795        0.0817457392
 C         -1.5242840997       -0.6661009295        1.1432223493
 C         -2.4048730292        0.4531365310        0.7843091897
 C         -2.4348991189        0.8837252415       -0.4904482702
 C         -3.3870847984        1.9156665021       -1.0209980799
 C         -4.6820671987        1.2600686929       -1.5235634302
 C         -5.3136224592        0.2859470628       -0.5291819306
 H         -6.2358134493       -0.0871704866       -0.9798994808
 H         -4.6503906796       -0.5721150175       -0.3981909308
 C         -5.6268658790        0.8957375425        0.8442788896
 H         -6.6283036791        0.5833627328        1.1477334894
 H         -5.6348594785        1.9840481725        0.7745694400
 C         -4.6704304992        0.4672548916        1.9585652595
 H         -4.5946147297       -0.6229506884        1.9782846191
 H         -5.0964390191        0.7822088015        2.9150453596
 C         -3.2517605790        1.0452031010        1.8753982298
 H         -3.3020464685        2.1316441611        1.7786073102
 H         -2.7412372091        0.8085091705        2.8139526798
 H         -4.4581070189        0.7125432031       -2.4417442204
 H         -5.3967100683        2.0493936433       -1.7636113700
 H         -2.9113359981        2.4318544822       -1.8548945797
 H         -3.6152730381        2.6344364320       -0.2365744496
 O         -1.6411481791        0.3717312515       -1.4638900903
 C         -0.7918357596       -0.6935235790       -1.2064369107
 O         -0.1213335297       -1.0653076089       -2.1866989408
 O         -1.4727921400       -1.0928653599        2.3294487092
 C          0.0711702295       -2.4579342299        0.3473321888
 C          1.5092223897       -2.2098140805       -0.0282897411
 C          2.2568175993       -3.0791361605       -0.8119575213
 C          3.5739915895       -2.7864737710       -1.1196138511
 C          4.1702684400       -1.6291642614       -0.6558119807
 C          3.4337446603       -0.7593338314        0.1421012196
 C          2.1170518102       -1.0565014009        0.4530425694
 H          1.5542047904       -0.3824590509        1.0832357196
 N          4.0194163808        0.4111501982        0.6414340600
 S          3.1212250214        1.7220843684        1.1189856404
 O          4.0814952019        2.8058563479        1.1652522209
 O          2.4428971512        1.4445162983        2.3611946703
 C          1.9292304816        2.0771435294       -0.1608260495
 C          0.7780805519        2.7385347798        0.2166110107
 C         -0.1203972279        3.1380610306       -0.7582084992
 C          0.1387368621        2.8554414909       -2.0900274293
 C          1.2897175018        2.1756264505       -2.4525503395
 C          2.2019243616        1.7914063398       -1.4829441396
 H          3.1044748014        1.2667939694       -1.7505426997
 H          1.4797048818        1.9399900108       -3.4870634896
 H         -0.5617768677        3.1609601915       -2.8511722893
 H         -1.0167311576        3.6649728709       -0.4733450091
 H          0.6065744319        2.9218603095        1.2657355307
 H          4.9140838010        0.6647683979        0.2511655502
 H          5.1955021701       -1.3982332518       -0.9007970905
 H          4.1424457092       -3.4669020510       -1.7350535414
 H          1.8080819889       -3.9833958402       -1.1879560717
 H          0.0264999194       -2.6154422803        1.4357295687
 C         -0.5401609010       -3.6594142994       -0.3449552117
 C         -0.3627536916       -5.0344822297        0.2238760078
 C         -1.6966536413       -4.3565968891        0.3040579680
 H         -2.4995018715       -4.7174174485       -0.3213807422
 H         -2.0255025512       -3.9818369993        1.2626062081
 H         -0.2523213820       -5.8650644495       -0.4568261225
 H          0.2121399383       -5.1286134503        1.1326911878
 H         -0.5664800209       -3.5484703590       -1.4234108817
