  62
        -98.94446609
 C          1.9677278518        1.2832169620        0.4101855374
 C          2.7537560966        0.9119936620       -0.7077921030
 C          3.9808521658        0.1594995674       -0.4049490292
 C          4.2701786221       -0.1492589401        0.8720102918
 C          5.4605317180       -0.9495422157        1.3136116237
 C          5.1329996454       -2.4477414800        1.3804427533
 C          4.4444214312       -2.9863928925        0.1262646392
 H          4.2897237524       -4.0574624330        0.2745171898
 H          3.4556416363       -2.5298519124        0.0365384815
 C          5.2264268361       -2.7580602940       -1.1748223082
 H          6.2702503631       -2.5396455280       -0.9462156554
 H          5.2087182307       -3.6800811117       -1.7597292852
 C          4.6610643524       -1.6527252634       -2.0686682702
 H          3.5914043487       -1.8170169205       -2.2230552315
 H          5.1468635081       -1.7244659003       -3.0454261999
 C          4.8605830682       -0.2183847316       -1.5632230795
 H          5.9122376622       -0.0580379620       -1.3170508440
 H          4.5898257295        0.4597231413       -2.3777722000
 H          6.0608063733       -2.9965204337        1.5519389045
 H          4.4735003571       -2.6211878474        2.2340738893
 H          6.2828350417       -0.7777572991        0.6218405237
 H          5.7557653106       -0.6070412599        2.3068831560
 O          3.4731398197        0.1962105520        1.9157058387
 C          2.3023794239        0.9065558477        1.7110204812
 O          1.6513343763        1.1352985554        2.7519816416
 H         -0.3200577339       -0.2031291325        1.0927220300
 C         -0.7320592710        0.0432109851        0.1215164000
 C         -0.3236608072        1.2164805595       -0.5032478301
 C         -0.8639872860        1.5316791995       -1.7417639405
 C         -1.7695377426        0.6763470946       -2.3478867958
 C         -2.1652786763       -0.4945836349       -1.7293668996
 C         -1.6441373569       -0.8092774290       -0.4795705359
 N         -2.0688287147       -1.9807405981        0.1719475599
 S         -3.7178901231       -2.2754184552        0.2101762619
 O         -3.9419706984       -3.0349437139        1.4203309467
 O         -4.1215437919       -2.9164877214       -1.0165257014
 C         -4.4790337981       -0.6653493759        0.3267127761
 C         -5.3217023889       -0.2274551041       -0.6744423012
 C         -5.8711519917        1.0412583375       -0.5810258590
 C         -5.5662387898        1.8474684284        0.5043479754
 C         -4.7216514944        1.3911683317        1.5050044861
 C         -4.1713026097        0.1229100678        1.4180173504
 H         -3.5137496132       -0.2609932654        2.1819650309
 H         -4.4855123527        2.0186376171        2.3495633990
 H         -5.9886956725        2.8374206337        0.5732523413
 H         -6.5301080248        1.3976987730       -1.3561256930
 H         -5.5283497741       -0.8854916176       -1.5026114333
 H         -1.6538846359       -2.1140060536        1.0823814134
 H         -2.8620718623       -1.1743279425       -2.1925017948
 H         -2.1722906395        0.9260606410       -3.3173904294
 H         -0.5667557975        2.4389789682       -2.2400236239
 C          0.6837641438        2.0751349781        0.2226066396
 H          0.2965311182        2.2586429587        1.2350012588
 C          0.9531901112        3.4073811710       -0.4420497190
 C         -0.0281493541        4.5276677040       -0.2781159609
 C          1.2996528166        4.5870324977        0.4138365112
 H          2.0406803059        5.2847326692        0.0535557317
 H          1.3289759917        4.4355283300        1.4833295587
 H         -0.2000233814        5.1897436883       -1.1129215221
 H         -0.9044974829        4.3383667485        0.3229671324
 H          1.4694254466        3.3109156731       -1.3892633164
 O          2.4570236508        1.1954895551       -1.8966588152
