  62
        -98.94330893
 C         -2.5106980790       -1.0481582006       -0.1528830852
 C         -3.6531960312       -0.8761988563        0.6655193334
 C         -4.6845889249        0.0258058317        0.1421362092
 C         -4.5098992087        0.6158522799       -1.0545647801
 C         -5.4812742290        1.5428717878       -1.7336869261
 C         -5.3753082474        3.0036990267       -1.2747700171
 C         -5.9144880758        3.2855453503        0.1281820508
 H         -5.9790561028        4.3702492347        0.2344783425
 H         -6.9269099147        2.8895702776        0.2136079754
 C         -5.0445162870        2.7297145361        1.2642647436
 H         -4.0492355372        2.4950366889        0.8795265305
 H         -4.9174236637        3.4947717459        2.0335234505
 C         -5.6154121369        1.4885950315        1.9504029396
 H         -6.5504453824        1.7450026583        2.4534027438
 H         -4.9034661771        1.1595550639        2.7117231629
 C         -5.8771135238        0.3085628762        1.0052442136
 H         -6.0673477990       -0.5806587965        1.6112856844
 H         -6.7544827321        0.5066653534        0.3900170823
 H         -4.3289843490        3.3124603070       -1.3320605601
 H         -5.9404719849        3.6101145111       -1.9862865653
 H         -5.2557340299        1.5004349294       -2.8013913615
 H         -6.4993210069        1.1843624163       -1.5790562302
 O         -3.4025034071        0.4139379268       -1.8167555456
 C         -2.3686074362       -0.4026744788       -1.3811051218
 O         -1.4069321018       -0.4738388059       -2.1694392469
 O         -3.8028927970       -1.4492908310        1.7778750413
 C         -1.3932895722       -1.9533241654        0.3352421612
 C         -0.1374803592       -1.1388527975        0.5230423317
 C         -0.1543197274       -0.0965729309        1.4473420060
 C          0.9630828512        0.6896036099        1.6475572361
 C          2.1233128921        0.4581817843        0.9281124487
 C          2.1540832719       -0.5813734109        0.0101287672
 C          1.0301089017       -1.3769022038       -0.1825343965
 H          1.0703564154       -2.1778622008       -0.9039616368
 N          3.3202460024       -0.8138535576       -0.7343330810
 S          4.8074469512       -0.8195635724        0.0356848222
 O          5.6646339495       -1.6231128786       -0.8083988752
 O          4.6898277673       -1.2379478961        1.4132737432
 C          5.3429183969        0.8767300828       -0.0446962851
 C          5.7316007354        1.5316454812        1.1073662902
 C          6.1592771890        2.8473363707        1.0188793833
 C          6.1916061773        3.4808510300       -0.2138365022
 C          5.8000711855        2.8083361711       -1.3619831992
 C          5.3723247452        1.4929163609       -1.2803393328
 H          5.0620939308        0.9363270477       -2.1489809470
 H          5.8258549769        3.3044518926       -2.3188891339
 H          6.5242570792        4.5046953485       -0.2806521413
 H          6.4644516449        3.3718685203        1.9100778686
 H          5.6854187934        1.0007266869        2.0449793704
 H          3.2428135790       -1.5670935312       -1.4014189005
 H          2.9979291405        1.0703316774        1.0756205581
 H          0.9325665430        1.4937492337        2.3671620784
 H         -1.0619969666        0.0872777009        2.0060999027
 H         -1.7182696136       -2.3081539905        1.3241583673
 C         -1.2287778154       -3.1485260828       -0.5785735561
 C         -0.5749784322       -4.3961550478       -0.0661709176
 C         -2.0507358197       -4.3752077858       -0.3257964986
 H         -2.4336235314       -4.9225472177       -1.1740356331
 H         -2.7204305590       -4.3593626159        0.5214941031
 H          0.0552818947       -4.9627882708       -0.7351987748
 H         -0.2391190689       -4.3977855649        0.9599233906
 H         -1.0594900197       -2.8684600895       -1.6122232401
