  62
        -98.94022382
 C         -1.7598951698       -0.8000867704        0.1209710989
 C         -3.0687979898       -1.0864156309        0.5682092285
 C         -4.0406947198        0.0240693491        0.5418605296
 C         -3.6292416898        1.2327150695        0.1147459609
 C         -4.4424075998        2.4905563997       -0.0364121678
 C         -5.3472492098        2.4637822109       -1.2792354079
 C         -6.0862537098        1.1480035812       -1.5094796992
 H         -6.5957670597        1.2178187921       -2.4742447492
 H         -5.3595094197        0.3370967312       -1.5864520901
 C         -7.1319925798        0.7948787501       -0.4545114696
 H         -7.8822706998        1.5878085000       -0.4146474688
 H         -7.6323049998       -0.1184221896       -0.7867858206
 C         -6.6011763998        0.5575380386        0.9606416601
 H         -7.4058996698        0.0895803480        1.5353114196
 H         -6.3749231598        1.4974234181        1.4568095411
 C         -5.4046580298       -0.3852232114        1.0436203292
 H         -5.6480003198       -1.3188120809        0.5235335082
 H         -5.2593812598       -0.6712067725        2.0925853789
 H         -4.7218119198        2.6502292018       -2.1557039377
 H         -6.0677902298        3.2794503908       -1.1994962071
 H         -5.0239144299        2.6691832988        0.8630833523
 H         -3.7317347198        3.3129975498       -0.1424050170
 O         -2.3497478598        1.4647296200       -0.2975491188
 C         -1.3885680498        0.4715470400       -0.3109471198
 O         -0.2692925098        0.8397151705       -0.7141342294
 O         -3.4204263797       -2.2267784013        0.9764028574
 C         -0.7244792197       -1.9089034904        0.1057359977
 C          0.4764352202       -1.5123695812        0.9269903982
 C          0.2813478202       -1.0776372925        2.2364998186
 C          1.3511569002       -0.7026168233        3.0246976990
 C          2.6407972202       -0.7464610828        2.5224268990
 C          2.8478726002       -1.1864267514        1.2217786186
 C          1.7704532003       -1.5765289207        0.4360879781
 H          1.9645167303       -1.9081239096       -0.5695768622
 N          4.1485663602       -1.2720781609        0.6900987385
 S          4.5268406403       -0.4737935794       -0.7324710407
 O          3.6897285503       -0.9494743283       -1.8020830512
 O          5.9500138303       -0.6778531292       -0.8960511909
 C          4.2145659002        1.2486111402       -0.3875182889
 C          5.2884628202        2.0586221199       -0.0693769881
 C          5.0586175101        3.3855696896        0.2535519833
 C          3.7614965601        3.8768128796        0.2627117237
 C          2.6958442802        3.0490772699       -0.0536849871
 C          2.9171298502        1.7201373802       -0.3831577985
 H          2.0925237402        1.0708292104       -0.6325259492
 H          1.6822420102        3.4178019098       -0.0493071368
 H          3.5791639501        4.9093721593        0.5162841648
 H          5.8873496001        4.0305736794        0.4977319140
 H          6.2790578202        1.6337392700       -0.0932610985
 H          4.8762268902       -1.0989237615        1.3698656787
 H          3.4786241202       -0.4474324034        3.1340058793
 H          1.1816976001       -0.3667375443        4.0365892994
 H         -0.7270784498       -1.0363423030        2.6257301286
 H         -1.2077353497       -2.7681358609        0.5946454569
 C         -0.3857351797       -2.2906872589       -1.3198620526
 C          0.0753173603       -3.6803214986       -1.6388230740
 C         -1.2912230097       -3.2294012482       -2.0568034836
 H         -1.4788415496       -3.0492925671       -3.1047961634
 H         -2.1447219097       -3.6173410187       -1.5199351040
 H          0.8317834704       -3.8076982678       -2.3987823742
 H          0.1497305603       -4.3817473294       -0.8215258848
 H          0.0471108503       -1.4710025883       -1.8839362118
