  62
        -98.93820462
 C          0.8357755415        1.8793250297        0.4706301708
 C          1.4464586999        0.9446293991        1.3443218712
 C          2.6183907097        0.2269476980        0.8270334622
 C          3.0626995610        0.5050893577       -0.4110349874
 C          4.1706513509       -0.2162810932       -1.1233243366
 C          3.6326952301       -1.5408677627       -1.7040383472
 C          4.2301031184       -2.7990328733       -1.0714771268
 H          3.6160019179       -3.6425268227       -1.3949874774
 H          5.2376358486       -2.9513971042       -1.4655895460
 C          4.3189060671       -2.8046952935        0.4579108533
 H          5.1927449374       -2.2335265744        0.7758682241
 H          4.4939998359       -3.8388539037        0.7622179633
 C          3.0852320270       -2.2736603725        1.1996248923
 H          2.2010338275       -2.3483277816        0.5630431115
 H          2.9080807857       -2.9097091124        2.0697228221
 C          3.2268691979       -0.8257809926        1.7101629926
 H          2.7030736272       -0.7338665323        2.6662485521
 H          4.2812804580       -0.5984419636        1.8880870335
 H          2.5453288300       -1.5565168417       -1.5895380981
 H          3.8297081310       -1.5737425927       -2.7771981970
 H          4.9950482901       -0.4026822741       -0.4385813859
 H          4.5204511622        0.4333013765       -1.9262833562
 O          2.4808890925        1.4382019484       -1.2055360478
 C          1.3130064428        2.0876557994       -0.8246590288
 O          0.8292470542        2.8082783700       -1.7171885491
 O          1.0060003587        0.6956689694        2.4994987508
 C         -0.5019299683        2.4571892009        0.9014636598
 C         -1.5492326678        2.0601460520       -0.1123415712
 C         -2.5420231866        2.8995474430       -0.5979452919
 C         -3.4554932163        2.4291586839       -1.5277126327
 C         -3.4037788771        1.1269703939       -1.9904518128
 C         -2.4088216083        0.2796328130       -1.5123975521
 C         -1.5120375287        0.7494642020       -0.5704421013
 H         -0.7310770696        0.0942412813       -0.2203498607
 N         -2.2830927392       -1.0339050171       -1.9739546821
 S         -1.4043145709       -2.1970938580       -1.1733153715
 O          0.0047621394       -1.8885555493       -1.1924430103
 O         -1.7867034015       -3.4290703276       -1.8308650419
 C         -2.0296759123       -2.2025562376        0.4969952780
 C         -1.2027134630       -1.9011884685        1.5588720387
 C         -1.7310186340       -1.8893853781        2.8401267683
 C         -3.0710134545       -2.1825612869        3.0371661971
 C         -3.8884740239       -2.4948775460        1.9608743264
 C         -3.3657950328       -2.5041169864        0.6784714768
 H         -3.9681854423       -2.7504536257       -0.1805599337
 H         -4.9296151042       -2.7264395751        2.1177454455
 H         -3.4787561653       -2.1680636166        4.0356307468
 H         -1.0887705145       -1.6358610488        3.6684190588
 H         -0.1651247026       -1.6652992394        1.3797583796
 H         -3.0315556790       -1.3952147863       -2.5427120928
 H         -4.1093288368        0.7728489247       -2.7259096235
 H         -4.2192479354        3.0927639147       -1.9041192933
 H         -2.5902026160        3.9246585430       -0.2691974719
 H         -0.7314514996        1.9120999910        1.8339959595
 C         -0.5136197373        3.9335023509        1.2639513999
 C          0.7555431932        4.6698843697        1.5694669110
 C         -0.0261331455        5.0042761905        0.3362336704
 H         -0.5636339746        5.9411897410        0.3110746001
 H          0.3657971051        4.6935823003       -0.6187113893
 H          0.7586349031        5.3726744296        2.3893335211
 H          1.6854161028        4.1324303388        1.4488660818
 H         -1.3682938975        4.1887025116        1.8832835792
