  62
        -98.94660013
 C         -2.4979455635       -0.3336563209       -0.0173026774
 C         -2.3210586779       -1.4787057788       -0.8274341979
 C         -1.6462891525       -2.6139553932       -0.1914064754
 C         -1.2455863539       -2.5176064866        1.0895281168
 C         -0.5146973355       -3.5778247725        1.8676386789
 C          1.0003275899       -3.5739313585        1.6181771940
 C          1.4379226341       -4.1581742731        0.2738704453
 H          2.5149352700       -4.3266355640        0.3352275306
 H          0.9620172888       -5.1286947007        0.1262289464
 C          1.1520112988       -3.2486487013       -0.9289452722
 H          0.9842392046       -2.2292130102       -0.5738361168
 H          2.0303804495       -3.2243892923       -1.5788512161
 C         -0.0326015887       -3.6841119529       -1.7919765843
 H          0.1932504298       -4.6412460121       -2.2684910580
 H         -0.1736605238       -2.9395399605       -2.5797047338
 C         -1.3575299533       -3.8220431783       -1.0318889943
 H         -2.1632955815       -3.9137767550       -1.7649060867
 H         -1.3442225363       -4.7186399693       -0.4125247423
 H          1.3599343397       -2.5444247007        1.6992215920
 H          1.4657355689       -4.1575267212        2.4163814117
 H         -0.6921276949       -3.3663028697        2.9243803279
 H         -0.9252258935       -4.5610766651        1.6346328798
 O         -1.4802782448       -1.4171492206        1.8521005802
 C         -2.0685223432       -0.2875399694        1.3096435540
 O         -2.1762997315        0.6697407655        2.1031406124
 H         -0.4349804747        0.7551048037       -0.8963449434
 C         -0.7337336420        1.7597950016       -0.6389939000
 C         -2.0827388933        2.0535608425       -0.4841047427
 C         -2.4444272222        3.3599864800       -0.1827917815
 C         -1.4734442006        4.3296250335        0.0023138536
 C         -0.1302022308        4.0114218608       -0.0749684245
 C          0.2412839011        2.7101269175       -0.3923552218
 N          1.6008535549        2.3283480358       -0.4706355493
 S          2.1015912639        1.0962674607        0.5809723291
 O          1.2839572791       -0.0729064435        0.4062806076
 O          2.2001744679        1.6287365112        1.9256277952
 C          3.7368864752        0.7898983337       -0.0590083054
 C          3.8762728651       -0.0834597167       -1.1199089778
 C          5.1395283172       -0.3043619036       -1.6449983413
 C          6.2360752209        0.3511404149       -1.1050501220
 C          6.0808049090        1.2244525882       -0.0392481925
 C          4.8197656132        1.4488827345        0.4904472633
 H          4.6540480800        2.1080925549        1.3272757237
 H          6.9354562217        1.7298553160        0.3806938998
 H          7.2180794477        0.1773635488       -1.5157676257
 H          5.2630904278       -0.9854834727       -2.4714974158
 H          2.9964124124       -0.5757447168       -1.5012538625
 H          2.2124009702        3.1207969936       -0.3124784767
 H          0.6259000146        4.7591327279        0.1144293608
 H         -1.7673364863        5.3412422160        0.2387838581
 H         -3.4860260678        3.6170901961       -0.0775331942
 C         -3.0765731443        0.9267297064       -0.6341439297
 H         -3.2008954351        0.7026299012       -1.7045796382
 C         -4.4336513460        1.2437466721       -0.0410593457
 C         -5.4861331063        1.9199354837       -0.8670001834
 C         -5.6267640895        0.4706012622       -0.5145697880
 H         -6.3744508788        0.1825512984        0.2089811235
 H         -5.4613479787       -0.2648238764       -1.2882512991
 H         -6.1430162605        2.6281264811       -0.3847258050
 H         -5.2373617095        2.1695716696       -1.8873266185
 H         -4.3761336632        1.4808342572        1.0157705239
 O         -2.7005747411       -1.5435615196       -2.0292799396
