  62
        -98.93885943
 C         -1.8783022226       -0.1812020431        0.0048180001
 C         -2.8654828499       -1.1178283578        0.3876117636
 C         -4.2009839394       -0.5758900497        0.6907832753
 C         -4.4003172046        0.7509270599        0.6050818366
 C         -5.6898583134        1.4953989891        0.8146430372
 C         -6.4214681632        1.6991923401       -0.5229971749
 C         -7.3427580594        0.5517277965       -0.9356940853
 H         -8.2203712004        0.5451657740       -0.2858004658
 H         -7.6885606499        0.7622430365       -1.9504007761
 C         -6.7070394669       -0.8408041219       -0.9122468464
 H         -5.7039444375       -0.7946935789       -1.3402652075
 H         -7.3029252286       -1.4909522788       -1.5558358694
 C         -6.6484787103       -1.4538937437        0.4947830189
 H         -7.2789835325       -0.8686840984        1.1639904277
 H         -7.0744745112       -2.4589881486        0.4685413468
 C         -5.2407151187       -1.5853406458        1.0952083683
 H         -5.3180008098       -1.5886027766        2.1875580779
 H         -4.8126629061       -2.5514439010        0.8100778228
 H         -5.6657379188        1.8617098733       -1.2959356549
 H         -7.0225331453        2.6085468018       -0.4588009768
 H         -6.3203556254        0.9808009395        1.5335970187
 H         -5.4222149550        2.4745935532        1.2170753154
 O         -3.4158057386        1.6210257725        0.2471169071
 C         -2.1385096429        1.1868403387       -0.0654141671
 O         -1.3480752349        2.0962694304       -0.3804395850
 H          1.8041612112        0.7648014520       -0.9622451149
 C          1.6321641613        0.6526028208        0.0945885803
 C          0.5302190788       -0.0409528303        0.5675100778
 C          0.3489521762       -0.1447354749        1.9454450795
 C          1.2342405297        0.4486861420        2.8225366922
 C          2.3296510009        1.1483715601        2.3456376718
 C          2.5251506121        1.2515300464        0.9748527606
 N          3.6240630939        1.9613578794        0.4624776587
 S          4.5558517165        1.2799403648       -0.7469355910
 O          5.7956774830        2.0240948025       -0.7138396657
 O          3.8435480412        1.2866010757       -1.9983951500
 C          4.8301381898       -0.3916983961       -0.1904357123
 C          4.0670708266       -1.4201039774       -0.7035970312
 C          4.2423282838       -2.6988787250       -0.1983387149
 C          5.1704301916       -2.9249858304        0.8059598874
 C          5.9337941017       -1.8812597055        1.3072031393
 C          5.7605583373       -0.6005353503        0.8091718280
 H          6.3403869560        0.2358755574        1.1645071318
 H          6.6584522189       -2.0618633752        2.0846819174
 H          5.3007728560       -3.9212865119        1.1979842953
 H          3.6513282186       -3.5122062508       -0.5884458346
 H          3.3577608043       -1.2049461285       -1.4853611177
 H          4.2090112413        2.3849062689        1.1679977142
 H          3.0195231942        1.6205023964        3.0285153759
 H          1.0745069034        0.3653580692        3.8869283982
 H         -0.5080164538       -0.6897933580        2.3171757381
 C         -0.4874759817       -0.6826791565       -0.3415403443
 H         -0.5079542673       -1.7618292717       -0.1289498249
 C         -0.2089512191       -0.4829701366       -1.8157790874
 C          0.7011680522       -1.4228593728       -2.5459719459
 C         -0.7751394469       -1.4596685494       -2.8010325503
 H         -1.1492318994       -1.0844538110       -3.7418128879
 H         -1.3409407016       -2.2906842390       -2.4056335403
 H          1.3487011622       -1.0218154198       -3.3119897534
 H          1.1287104156       -2.2383993533       -1.9823298222
 H         -0.2023058129        0.5625001375       -2.1045887633
 O         -2.6416980244       -2.3559287246        0.4707213406
