  62
        -98.93429969
 C         -2.4401476415       -0.0625032781       -0.5046862301
 C         -3.4512030466        0.7383737313        0.0819959049
 C         -4.6204079566        0.0091596080        0.6036847472
 C         -4.6499975382       -1.3335833714        0.5447533916
 C         -5.7948105944       -2.1903517425        1.0003905563
 C         -6.7819290613       -2.4547666777       -0.1451066466
 C         -7.2020054744       -1.1943185443       -0.9011798699
 H         -6.3333641762       -0.7857541388       -1.4226706290
 H         -7.9217113141       -1.4975585926       -1.6646707744
 C         -7.8222088468       -0.1019726674       -0.0188647780
 H         -8.7117657033        0.2880986676       -0.5180492705
 H         -8.1457414001       -0.5314171750        0.9299481930
 C         -6.9046738476        1.0917958832        0.2524069069
 H         -7.5074885171        1.8900592160        0.6936128163
 H         -6.5050019400        1.4686912769       -0.6924555468
 C         -5.7291936098        0.8288727324        1.2021550655
 H         -5.2836926603        1.7957140539        1.4543789429
 H         -6.0952142997        0.3692898972        2.1224838101
 H         -7.6654362970       -2.9456027199        0.2670559322
 H         -6.3126922245       -3.1395464115       -0.8552842874
 H         -6.3041088175       -1.6979496508        1.8265077702
 H         -5.3927000784       -3.1429522097        1.3493735439
 O         -3.6418848285       -2.0708439466        0.0119015003
 C         -2.5277333639       -1.4572698843       -0.5316822153
 O         -1.6905843617       -2.2492457091       -1.0105421458
 O         -3.4023651232        1.9910448812        0.1762827038
 C         -1.1752632412        0.5119524962       -1.1222580807
 C         -0.0967911301        0.6552980879       -0.0787871405
 C         -0.3255370682        1.3506584054        1.1044476883
 C          0.6767759627        1.4713023398        2.0496560534
 C          1.9190532584        0.8978418267        1.8418372605
 C          2.1563135933        0.1969544254        0.6671317216
 C          1.1511120643        0.0869994462       -0.2864993801
 H          1.3347254578       -0.4689938264       -1.1962604770
 N          3.4062863166       -0.4148923365        0.4583616161
 S          4.7846513350        0.5006815210        0.8043037534
 O          4.9996745437        0.4846329802        2.2291167003
 O          4.6739695433        1.8083770834        0.1968908848
 C          6.0415939868       -0.4643892070       -0.0088739053
 C          6.5202989438       -1.5948647463        0.6258729701
 C          7.4798985178       -2.3643336232       -0.0121810371
 C          7.9413719721       -1.9932640599       -1.2666139623
 C          7.4518978684       -0.8554985484       -1.8902441226
 C          6.4907956521       -0.0819248305       -1.2584270251
 H          6.0882233055        0.8147626412       -1.7018144744
 H          7.8145833505       -0.5683513905       -2.8640946059
 H          8.6893374765       -2.5933174161       -1.7603766118
 H          7.8648558476       -3.2484563793        0.4698462861
 H          6.1388189070       -1.8393115548        1.6034330372
 H          3.4751395371       -0.8294703398       -0.4614171856
 H          2.7072601470        0.9884175229        2.5716276319
 H          0.4890883759        2.0175550942        2.9621819638
 H         -1.2933413282        1.7989150643        1.2710335607
 H         -0.8373192742       -0.2522872408       -1.8402329225
 C         -1.4197763943        1.7902406094       -1.9128175164
 C         -0.9215376218        3.1387981113       -1.4990824054
 C         -0.2869820422        2.4336102829       -2.6574104550
 H         -0.4648164113        2.8043602739       -3.6554787636
 H          0.7014439875        2.0250971452       -2.5061693604
 H         -1.5619422002        3.9863046636       -1.6898511155
 H         -0.3574136338        3.2201960946       -0.5834347709
 H         -2.3805104994        1.7726581788       -2.4172193523
