  62
        -98.94304677
 C         -1.9323651639       -0.0378104308       -0.2910763744
 C         -2.8181819066        0.7041065641        0.5287343049
 C         -4.1261908360        0.0825182442        0.7798619061
 C         -4.4033642808       -1.1352241900        0.2824143125
 C         -5.6794708962       -1.9072060175        0.4805532710
 C         -6.7977645167       -1.5254581710       -0.4990598481
 C         -7.4473827655       -0.1642482639       -0.2466495397
 H         -8.3487003564       -0.1211303258       -0.8614221110
 H         -7.7612414326       -0.1008292311        0.7957222532
 C         -6.5559254816        1.0366848545       -0.5924451632
 H         -5.7354530487        0.7081608276       -1.2346766745
 H         -7.1347755893        1.7671123670       -1.1622345047
 C         -5.9746659806        1.7649131266        0.6194611774
 H         -6.7839867789        2.2124439894        1.2005633472
 H         -5.3325465409        2.5719140940        0.2579803104
 C         -5.1395730901        0.8752595309        1.5495011919
 H         -4.5982652154        1.5197507738        2.2461252814
 H         -5.7893404540        0.2115106283        2.1191954157
 H         -6.3969842374       -1.5557598916       -1.5150201927
 H         -7.5716856612       -2.2929682714       -0.4248521253
 H         -5.4318963588       -2.9599370474        0.3274404471
 H         -6.0311520811       -1.7785019301        1.5045973400
 O         -3.5119448150       -1.8341205445       -0.4701295854
 C         -2.2780598153       -1.2965698232       -0.7925916504
 O         -1.5825582726       -2.0283843616       -1.5271521956
 O         -2.5569688503        1.8250465243        1.0373524397
 C         -0.5519721987        0.4629705870       -0.6901077687
 C          0.4478924172        0.2198823122        0.4151505208
 C          0.3610611083        0.8809193960        1.6367519378
 C          1.2824435837        0.6282743337        2.6357180410
 C          2.3163822533       -0.2693621337        2.4324908981
 C          2.4121849542       -0.9351673487        1.2170695216
 C          1.4756610254       -0.6918875791        0.2208520807
 H          1.5527217073       -1.2308550403       -0.7118348389
 N          3.4512318435       -1.8555823965        0.9802924379
 S          4.4231384634       -1.6435150566       -0.3656277739
 O          3.6584282070       -1.8492372238       -1.5682266578
 O          5.5457667646       -2.5298637918       -0.1550931047
 C          4.9599790107        0.0539783543       -0.2536958748
 C          4.1465643214        1.0509965615       -0.7541507970
 C          4.5297086623        2.3726347400       -0.5900585202
 C          5.7141033365        2.6730793067        0.0649510942
 C          6.5232048769        1.6600436667        0.5571773383
 C          6.1414531440        0.3370942975        0.4036803975
 H          6.7406672487       -0.4821088899        0.7670852272
 H          7.4457651744        1.8967927712        1.0622827791
 H          6.0080298805        3.7031844418        0.1903945517
 H          3.8984515474        3.1585976129       -0.9723549408
 H          3.2345062632        0.7807136257       -1.2602514583
 H          4.0272668645       -2.0355882277        1.7907430900
 H          3.0384256014       -0.4621089046        3.2116885893
 H          1.1995642471        1.1414785062        3.5816265955
 H         -0.4483586709        1.5750262708        1.8010838930
 H         -0.2529939926       -0.1551322354       -1.5481029130
 C         -0.5519967686        1.9153214621       -1.1257565436
 C          0.4946465955        2.3872788319       -2.0874510206
 C         -0.9294926009        2.2522113918       -2.5352821771
 H         -1.5048636658        3.1478817318       -2.7149583530
 H         -1.1811291540        1.4331724961       -3.1942467527
 H          0.9000844676        3.3793035418       -1.9622347393
 H          1.2052900191        1.6608883365       -2.4538790994
 H         -0.8733652894        2.5993069347       -0.3521173373
