  62
        -98.94487126
 C          1.9389441598        0.2014382201        0.1042043498
 C          2.9827772799        0.9975949005        0.6347278391
 C          4.2831181599        0.3343388506        0.7782101194
 C          4.4098229899       -0.9633174197        0.4460126304
 C          5.6650969799       -1.7857094496        0.5555458909
 C          6.6097857997       -1.6407568905       -0.6454814394
 C          7.3565554197       -0.3088245906       -0.7286198005
 H          7.8519094198       -0.1116452999        0.2225919493
 H          8.1362458296       -0.4260293512       -1.4839076205
 C          6.4758733997        0.8889890191       -1.1110417913
 H          6.9793327196        1.4802839885       -1.8792660718
 H          5.5407519896        0.5293769888       -1.5467932709
 C          6.1514358699        1.8330990700        0.0467486080
 H          5.4961822098        2.6227564997       -0.3294725825
 H          7.0704673199        2.3009436603        0.4065556675
 C          5.4489683900        1.1595984909        1.2330148586
 H          6.1562677401        0.5457952713        1.7901320890
 H          5.0658392401        1.9410921414        1.8936567181
 H          6.0350458596       -1.7946821712       -1.5618247592
 H          7.3480589897       -2.4432103105       -0.5782343688
 H          5.3480754699       -2.8288027596        0.6203823917
 H          6.1962320100       -1.5260552789        1.4716341606
 O          3.3724389498       -1.7040781900       -0.0271163289
 C          2.1202489898       -1.1400793502       -0.2316951992
 O          1.2770953397       -1.9271981305       -0.7017603485
 O          2.8327488600        2.2012250408        0.9756483081
 C          0.5744320398        0.8352739700       -0.1054648305
 C         -0.4562725601        0.0935688906        0.7073740402
 C         -0.3073239799        0.0615564317        2.0926972402
 C         -1.2010501198       -0.6322408577        2.8835370808
 C         -2.2693389699       -1.3015744881        2.3111173715
 C         -2.4284617101       -1.2760956492        0.9313298615
 C         -1.5278258302       -0.5749079198        0.1386246008
 H         -1.6642179703       -0.5918437606       -0.9289173091
 N         -3.4891246502       -1.9698426296        0.3282659822
 S         -4.3966650403       -1.2896154106       -0.8970079183
 O         -5.5439537003       -2.1614684507       -1.0200413674
 O         -3.5987107805       -1.1118911015       -2.0824238585
 C         -4.9102091802        0.2908175699       -0.2492314694
 C         -6.0489196901        0.3417684405        0.5315144007
 C         -6.4272750400        1.5522785510        1.0886019998
 C         -5.6586512200        2.6845881008        0.8643341088
 C         -4.5179374001        2.6163480402        0.0796380187
 C         -4.1363126302        1.4091091497       -0.4846467604
 H         -3.2592271503        1.3203792892       -1.1038234804
 H         -3.9221273401        3.4978258100       -0.0960703720
 H         -5.9510776600        3.6266608111        1.3005892081
 H         -7.3165699399        1.6093664915        1.6954126999
 H         -6.6226113401       -0.5601192693        0.6712232915
 H         -4.0815701601       -2.4704082291        0.9742547426
 H         -2.9651386198       -1.8516565177        2.9262594520
 H         -1.0690484097       -0.6524725669        3.9547891808
 H          0.5308232702        0.5807884620        2.5371580697
 H          0.6651761599        1.8536002103        0.3002396387
 C          0.2521653796        0.9284285088       -1.5811709706
 C         -0.6731375904        1.9961812785       -2.0803158313
 C          0.7948038796        2.0801243582       -2.3709989115
 H          1.1350849294        1.8986183574       -3.3795284914
 H          1.3802854996        2.8150760286       -1.8379786821
 H         -1.3458621705        1.7565146878       -2.8907667410
 H         -1.0779598103        2.6831875890       -1.3523077217
 H          0.2267638396       -0.0387212316       -2.0712944398
