  62
        -98.94519264
 C         -2.0986079345       -1.4664749756       -0.0205298763
 C         -1.8913457510       -0.4570830829       -0.9916533374
 C         -2.8008745594        0.6968510781       -0.9204479834
 C         -3.7346817176        0.7482425291        0.0462478566
 C         -4.6703561132        1.8982159132        0.2775861616
 C         -4.0647797408        2.9186945319        1.2520397393
 C         -2.6371865661        3.3396787906        0.9017115371
 H         -2.3321444532        4.0865607393        1.6376287036
 H         -1.9717569602        2.4810763408        1.0180050010
 C         -2.4765521792        3.9153910644       -0.5120502895
 H         -3.4500501947        4.2129513324       -0.9034425790
 H         -1.8627324928        4.8167068083       -0.4585617589
 C         -1.7982513757        2.9699015527       -1.5047613542
 H         -1.5398740998        3.5435388997       -2.3986925619
 H         -0.8684436259        2.5905382998       -1.0745807788
 C         -2.6367028411        1.7697953208       -1.9602460661
 H         -3.6112246389        2.1114257331       -2.3152202607
 H         -2.1126272010        1.2983649530       -2.7967378684
 H         -4.7109577486        3.7982428067        1.2735088150
 H         -4.0571136416        2.4788758396        2.2520348810
 H         -4.8938055756        2.3765133915       -0.6740830403
 H         -5.5963528746        1.5079836275        0.7032672172
 O         -3.8981285648       -0.2352323487        0.9672834199
 C         -3.0916387509       -1.3585039525        0.9579885361
 O         -3.3524925534       -2.1827477174        1.8570385058
 O         -1.0037355934       -0.5017785140       -1.8841945196
 C         -1.2403070345       -2.7216619755        0.0352075082
 C          0.1277844422       -2.3585818698        0.5604732472
 C          0.3729873724       -2.4103922360        1.9293052210
 C          1.6085197555       -2.0544295770        2.4380833222
 C          2.6216796578       -1.6309856279        1.5955623413
 C          2.3783688318       -1.5499561764        0.2304737903
 C          1.1409623914       -1.9226506709       -0.2799655656
 H          0.9572573395       -1.8440914543       -1.3397034270
 N          3.3912533978       -1.1186270980       -0.6440371317
 S          4.2985011665        0.2409704493       -0.2983283226
 O          5.0198886420        0.5268174793       -1.5168937046
 O          5.1006646869       -0.0077628713        0.8734909334
 C          3.1316398878        1.5476987541        0.0339903807
 C          2.6548811090        1.7283373134        1.3168806878
 C          1.7262577505        2.7303321900        1.5503229670
 C          1.2987837011        3.5346832983        0.5058256182
 C          1.7908316623        3.3435260990       -0.7765530711
 C          2.7100176242        2.3361093847       -1.0183381123
 H          3.1203163871        2.1575848024       -1.9992241986
 H          1.4585348657        3.9727051713       -1.5866037899
 H          0.5776729474        4.3147524612        0.6920525747
 H          1.3407337108        2.8805178454        2.5460764549
 H          3.0206357279        1.0962466392        2.1087471802
 H          3.1020627579       -1.1054043135       -1.6114578739
 H          3.5940064261       -1.3623892849        1.9756219212
 H          1.7881667748       -2.1114163065        3.5011490252
 H         -0.4212315327       -2.7276933892        2.5905480562
 H         -1.7194817775       -3.3747675934        0.7763946414
 C         -1.1980911500       -3.4523268151       -1.2913822751
 C         -0.7046661783       -4.8665095332       -1.3255092865
 C         -2.1590600296       -4.5743594440       -1.5381570665
 H         -2.5700156793       -4.6916827657       -2.5297734911
 H         -2.8517040496       -4.8238876444       -0.7474378608
 H         -0.1150072464       -5.1882941734       -2.1702390763
 H         -0.4093782485       -5.3132923232       -0.3880126063
 H         -0.9629602731       -2.8142756936       -2.1330977381
