  62
        -98.93821100
 C          2.6688943303        1.1942659236        0.2177260230
 C          3.0876846173        0.2628198662        1.2028804533
 C          4.2959398850       -0.5093927853        0.8988158833
 C          4.9476859517       -0.2937668930       -0.2580147615
 C          6.2113799267       -0.9775430707       -0.7046187676
 C          5.9818773623       -2.3408767264       -1.3711324168
 C          5.5736214889       -3.4685247576       -0.4223187813
 H          5.6610752051       -4.4032030560       -0.9798266260
 H          6.2797553984       -3.5173333391        0.4072180728
 C          4.1431567766       -3.3514988111        0.1224396997
 H          3.5736893274       -2.6520063836       -0.4940067296
 H          3.6449639770       -4.3207582627        0.0485894725
 C          4.0542518827       -2.9076368400        1.5826565346
 H          2.9980156513       -2.8209824418        1.8502358874
 H          4.5037351377       -3.6680044393        2.2253000870
 C          4.7282836245       -1.5608999097        1.8754717013
 H          5.8124599387       -1.6712765072        1.8602306110
 H          4.4230476617       -1.2336391603        2.8724560861
 H          5.2231465708       -2.2261503151       -2.1486258467
 H          6.9169652062       -2.6260414081       -1.8587392552
 H          6.8839451708       -1.0953283852        0.1455736015
 H          6.6831809148       -0.3135622592       -1.4321481429
 O          4.5252867105        0.6171090537       -1.1717704751
 C          3.3689504585        1.3662594152       -0.9775452825
 O          3.1050717116        2.1255147199       -1.9267212579
 O          2.4811042825        0.0960777620        2.2955725802
 C          1.4189407861        1.9950875098        0.5353194170
 C          0.1864745257        1.3099490729        0.0024567875
 C          0.0845942167        0.9364083185       -1.3341477944
 C         -1.0607458162        0.3182345915       -1.8020172666
 C         -2.1205084841        0.0528516785       -0.9518615699
 C         -2.0276008408        0.4162221243        0.3845379430
 C         -0.8784020898        1.0435167921        0.8503707921
 H         -0.8054760020        1.3158327509        1.8948963267
 N         -3.0889378819        0.1301349397        1.2569574358
 S         -4.6523928762        0.5175923353        0.7880055709
 O         -4.6682453429        1.6542109895       -0.1028378647
 O         -5.3902189812        0.6588846775        2.0239724906
 C         -5.2202312157       -0.9385869197       -0.0639976526
 C         -5.1041020054       -2.1567205354        0.5765061401
 C         -5.5562130203       -3.2968916450       -0.0681724334
 C         -6.1170354536       -3.1999982609       -1.3331042054
 C         -6.2293743952       -1.9691833357       -1.9612415147
 C         -5.7777490725       -0.8247228513       -1.3223916425
 H         -5.8387623211        0.1522530372       -1.7750128648
 H         -6.6655829133       -1.8960118217       -2.9445330697
 H         -6.4683641143       -4.0892333022       -1.8322983556
 H         -5.4697040900       -4.2560149392        0.4166122636
 H         -4.6643828077       -2.1903131014        1.5593710717
 H         -2.9175003800        0.3935157710        2.2163843415
 H         -3.0133526496       -0.4296973601       -1.3145319341
 H         -1.1289485490        0.0372553987       -2.8421417727
 H          0.9100104287        1.1416430551       -1.9992330343
 H          1.3535754751        1.9749205427        1.6352046877
 C          1.5154989154        3.4568504895        0.1212136776
 C          0.7166551986        4.0688510059       -0.9858201046
 C          0.3922531722        4.4001062026        0.4380582667
 H          0.6296753154        5.3843439726        0.8123430472
 H         -0.5113395343        3.9764185050        0.8517049718
 H          1.2028119525        4.8129769988       -1.5978430405
 H          0.0281730129        3.4428227373       -1.5307754656
 H          2.5215377068        3.8434847640        0.2501892980
