  62
        -98.94438926
 C         -1.8569303586       -0.7797726915        0.1390224126
 C         -2.3792219067        0.5353882160        0.1804355705
 C         -3.8058381058        0.6404293268        0.5139262812
 C         -4.5158661729       -0.4707073122        0.7814535255
 C         -5.9719054736       -0.5227171009        1.1576802203
 C         -6.9276331966       -0.4987904838       -0.0430096999
 C         -7.0446149574        0.8496999735       -0.7545149105
 H         -7.9001714679        0.7826265124       -1.4295311909
 H         -7.2675046583        1.6272414994       -0.0232040328
 C         -5.8047529539        1.2462826986       -1.5681932235
 H         -6.1147292345        1.6116366385       -2.5499254503
 H         -5.1820286586        0.3647949101       -1.7374895230
 C         -4.9490611294        2.3396476594       -0.9281249014
 H         -4.0813163282        2.5153751553       -1.5692787972
 H         -5.5210029790        3.2687653809       -0.8747003229
 C         -4.4369554837        1.9994036297        0.4776752972
 H         -3.6693274935        2.7284467264        0.7490793820
 H         -5.2507646216        2.0623637228        1.1998062659
 H         -6.6099203877       -1.2614155364       -0.7577352947
 H         -7.9179550586       -0.7788171831        0.3233905588
 H         -6.2073923229        0.3041599478        1.8281856939
 H         -6.1202718463       -1.4610736017        1.6963497402
 O         -3.9670132023       -1.7145743189        0.7586843056
 C         -2.6367278008       -1.9015878365        0.4192285585
 O         -2.2695789709       -3.0941406408        0.4135558660
 O         -1.6948633801        1.5672004773       -0.0450103377
 C         -0.4026586490       -1.0045638010       -0.2353376897
 C          0.5001378861       -0.2376943213        0.6992745898
 C          0.2862111259       -0.3430321365        2.0720383452
 C          1.0710016579        0.3567302099        2.9664526326
 C          2.0988893501        1.1654884211        2.5131759728
 C          2.3308147071        1.2666779684        1.1477619350
 C          1.5402033458        0.5600528861        0.2496420572
 H          1.7357255752        0.6709429330       -0.8034625749
 N          3.3638697042        2.0813080441        0.6602151830
 S          4.3084995287        1.5560414570       -0.6116170341
 O          5.5343671775        2.3151940318       -0.4881930288
 O          3.6050516563        1.6972227725       -1.8607912755
 C          4.6205500322       -0.1673804288       -0.2702981483
 C          5.2595804013       -0.4947843199        0.9097270668
 C          5.4871130564       -1.8295616181        1.2008994140
 C          5.0743772633       -2.8104259064        0.3117051364
 C          4.4409464399       -2.4651455109       -0.8715751231
 C          4.2094981966       -1.1309342116       -1.1670336566
 H          3.7175428724       -0.8199699054       -2.0739411762
 H          4.1246381971       -3.2287745677       -1.5644156155
 H          5.2492020915       -3.8498063237        0.5408645283
 H          5.9831049000       -2.1018077920        2.1185743548
 H          5.5782810123        0.2917005756        1.5741713773
 H          3.9149858567        2.5377886862        1.3717784325
 H          2.7075436187        1.7221052357        3.2093610490
 H          0.8837535830        0.2723147048        4.0263110318
 H         -0.5181920383       -0.9735666766        2.4261620192
 H         -0.2137473659       -2.0784741326       -0.0908185109
 C         -0.1951133785       -0.6656408008       -1.6968069479
 C          0.8284397496       -1.3987142943       -2.5079537522
 C         -0.6306130941       -1.6533689039       -2.7358936292
 H         -1.0867584344       -1.2827682943       -3.6417259218
 H         -1.0485834604       -2.5863602225       -2.3860198118
 H          1.3766023339       -0.8492065437       -3.2591161068
 H          1.4005923514       -2.1662076695       -2.0093798191
 H         -0.3594005657        0.3849928573       -1.9094410425
