  62
        -98.93431122
 C         -2.5855512076       -1.3495962366       -0.1600673518
 C         -2.4204619943       -0.0967276360       -0.7917676832
 C         -3.6144476051        0.7702858882       -0.8696566938
 C         -4.7747687081        0.3253205598       -0.3523271007
 C         -6.0974799895        1.0406291386       -0.2803509593
 C         -6.1306676364        2.1111176835        0.8229412915
 C         -4.8789964818        2.9804180335        0.9145301568
 H         -4.0071036287        2.3415628469        1.0694304600
 H         -4.9770755618        3.6120072447        1.8015779823
 C         -4.6316661105        3.8943841951       -0.2832667102
 H         -3.7556012968        4.5049444148       -0.0492637005
 H         -5.4837500891        4.5676445490       -0.4015061315
 C         -4.3786705090        3.1933480081       -1.6192675330
 H         -3.9942283598        3.9466624601       -2.3132238442
 H         -5.3058343122        2.8231844689       -2.0482629707
 C         -3.3374676443        2.0791890748       -1.5693348160
 H         -2.4162557342        2.4687462411       -1.1202206319
 H         -3.0648367137        1.8122831493       -2.5977380334
 H         -6.2514364167        1.6025169573        1.7825249705
 H         -7.0052100501        2.7440883947        0.6642035921
 H         -6.3420154988        1.4707122086       -1.2469188612
 H         -6.8511886969        0.2838003577       -0.0522313944
 O         -4.8850756951       -0.8945509257        0.2482283124
 C         -3.8107578042       -1.7520023343        0.3696541971
 O         -4.0646160194       -2.8234077859        0.9570072406
 H          1.2221683834       -1.7454790281       -0.6761728705
 C          0.9570151303       -1.4132238240        0.3151103896
 C         -0.3256007160       -1.6217497484        0.7925913570
 C         -0.6413278009       -1.1708810817        2.0722078540
 C          0.3026224136       -0.5257456454        2.8466871807
 C          1.5840015859       -0.3172960811        2.3654967615
 C          1.9088263297       -0.7606718002        1.0917561293
 N          3.2138433263       -0.5803494337        0.5967395644
 S          3.9923646099        0.8848990282        0.9122980152
 O          4.4838962708        0.8571563576        2.2676187046
 O          3.1339865587        1.9985846004        0.5754642259
 C          5.3607946798        0.7811365347       -0.2244811580
 C          6.5063234074        0.1160699634        0.1694787503
 C          7.5608365096        0.0123574786       -0.7236183396
 C          7.4528366484        0.5716335395       -1.9882369358
 C          6.2970914380        1.2370901030       -2.3688743107
 C          5.2380476330        1.3434126068       -1.4810099333
 H          4.3245352087        1.8594157401       -1.7312511165
 H          6.2167154030        1.6732214317       -3.3516288175
 H          8.2751872862        0.4911141654       -2.6814976169
 H          8.4619102359       -0.5021459567       -0.4312070317
 H          6.5477914860       -0.2938688070        1.1649594850
 H          3.2770947828       -0.8103864405       -0.3860105800
 H          2.3265610794        0.1944019502        2.9559624341
 H          0.0412166053       -0.1773940586        3.8350474931
 H         -1.6445131428       -1.3273933279        2.4466038641
 C         -1.4068557759       -2.2963776403       -0.0168409787
 H         -1.7775589396       -3.1539921975        0.5626471962
 C         -0.9518332820       -2.7859804948       -1.3750715990
 C         -0.2033683624       -4.0787687617       -1.4936074832
 C         -1.6200805408       -3.9859549120       -1.9730354254
 H         -1.8080475832       -3.9945369631       -3.0362177529
 H         -2.3932221599       -4.4649928463       -1.3900321700
 H         -0.0108429665       -4.6281316247       -0.5845970547
 H          0.5812828051       -4.1563061039       -2.2309977633
 H         -0.6900743619       -1.9758085460       -2.0458046613
 O         -1.3246968504        0.2948415769       -1.2751538759
