  62
        -98.93757691
 C         -1.9122898399       -0.5890203621       -0.1521012176
 C         -2.9409350234       -0.7587359493        0.8123162104
 C         -4.1254566011        0.0998633647        0.6755303809
 C         -4.1666606753        0.9984106577       -0.3245232439
 C         -5.3285619889        1.8935356597       -0.6489547559
 C         -6.4251629412        1.0900016666       -1.3769443400
 C         -7.7302350718        0.9508896587       -0.5929376263
 H         -8.2738472375        1.8969755284       -0.6379653925
 H         -8.3374701340        0.1978231123       -1.0997503444
 C         -7.5849011306        0.5642900061        0.8820585995
 H         -8.5725008965        0.2505022693        1.2268329347
 H         -7.3169482170        1.4449501100        1.4677588699
 C         -6.5787020109       -0.5528948769        1.1872848764
 H         -6.4289615331       -1.1854068861        0.3120473010
 H         -7.0024677654       -1.1868473836        1.9687996729
 C         -5.2124971965       -0.0620924553        1.7017712611
 H         -5.3431568401        0.8774330442        2.2460457990
 H         -4.8206324611       -0.7987780614        2.4092718554
 H         -6.0285827757        0.0983676295       -1.6048196237
 H         -6.6500372324        1.5650662540       -2.3330806420
 H         -4.9544691592        2.6927211046       -1.2892923639
 H         -5.7193907010        2.3342862640        0.2655324516
 O         -3.1595932186        1.1422734806       -1.2216731732
 C         -2.0123979817        0.3638277009       -1.1650978245
 O         -1.1924428959        0.6310638207       -2.0672249762
 O         -2.8702481814       -1.6009844027        1.7466444899
 C         -0.6944163004       -1.4880525498       -0.0111670892
 C          0.4498898952       -0.7515057270        0.6435803966
 C          0.8839600730       -1.1007430924        1.9170517978
 C          1.9353182498       -0.4269677733        2.5144664196
 C          2.5763499428        0.6049145813        1.8534861008
 C          2.1487618926        0.9610420331        0.5803425510
 C          1.0991701660        0.2804815082       -0.0194716435
 H          0.7617889749        0.5737150821       -1.0022810796
 N          2.7985185348        2.0035707655       -0.1027998250
 S          4.4713985357        1.9754844650       -0.1250170239
 O          4.9798442593        2.5623745143        1.0905035498
 O          4.8535090011        2.6407638979       -1.3509424362
 C          4.9064283773        0.2453024728       -0.1828532740
 C          4.4305910134       -0.5117825517       -1.2352321712
 C          4.7263351044       -1.8643182453       -1.2740805252
 C          5.4882193141       -2.4345418834       -0.2656927658
 C          5.9634518644       -1.6598270431        0.7806322838
 C          5.6687818482       -0.3064935236        0.8262811559
 H          6.0124529398        0.3320718964        1.6236815616
 H          6.5574472141       -2.1051712999        1.5623187664
 H          5.7118870017       -3.4891193532       -0.2976183233
 H          4.3575149942       -2.4683583062       -2.0873825802
 H          3.8417694301       -0.0400937278       -2.0057864768
 H          2.4174512554        2.1840160432       -1.0200531590
 H          3.3912740765        1.1475107321        2.3049056808
 H          2.2586051236       -0.7069394698        3.5052834485
 H          0.3795673247       -1.8969292630        2.4446547947
 H         -1.0095454923       -2.2864606535        0.6735190415
 C         -0.2603292419       -2.1212102898       -1.3191433492
 C          0.6186469148       -3.3339637352       -1.2809954839
 C         -0.8134113296       -3.4589345796       -1.7046971250
 H         -1.0322173731       -3.6445970192       -2.7456633492
 H         -1.5088951613       -3.9276263530       -1.0237716487
 H          1.3857774137       -3.4360372932       -2.0326559491
 H          0.8967010380       -3.7188515928       -0.3118470956
 H         -0.0987817332       -1.4050107336       -2.1138959556
