  62
        -98.94570032
 C         -2.5614332203       -0.1298194832        0.0673328972
 C         -2.4278155962       -1.1900324140       -0.8586069304
 C         -1.9070410068       -2.4502154842       -0.3199645761
 C         -1.5922827966       -2.5366987242        0.9854906313
 C         -1.0393114930       -3.7491849608        1.6840045067
 C          0.4811913015       -3.8987485881        1.5357183752
 C          0.9533794237       -4.3826990807        0.1639097739
 H          1.9962465778       -4.6869000162        0.2724522900
 H          0.3830259369       -5.2651286478       -0.1293354314
 C          0.8676152225       -3.3193028369       -0.9395591191
 H          0.7963776838       -2.3270636976       -0.4870475964
 H          1.7903735683       -3.3236430058       -1.5258003385
 C         -0.2875894882       -3.5054966854       -1.9236789609
 H         -0.1283181843       -4.4155567310       -2.5076630301
 H         -0.2803518072       -2.6559621729       -2.6122508555
 C         -1.6754927805       -3.5823036483       -1.2752399312
 H         -2.4253479769       -3.5047109056       -2.0670109208
 H         -1.7996824871       -4.5386582824       -0.7672194819
 H          0.8149950881       -4.6168223154        2.2885255788
 H          0.9480974004       -2.9352263626        1.7556626324
 H         -1.5355394554       -4.6476559871        1.3153513941
 H         -1.2736714809       -3.6299675455        2.7439360160
 O         -1.7650632305       -1.5038611178        1.8514333489
 C         -2.2114509436       -0.2682848678        1.4108834664
 O         -2.2722096174        0.6034896658        2.2999094502
 O         -2.7294804440       -1.0860704347       -2.0804687612
 C         -2.9895417125        1.2366632513       -0.4317111459
 C         -1.8876701646        2.2430851485       -0.1953077441
 C         -2.1279980890        3.5814214090        0.0874430015
 C         -1.0714959208        4.4554049632        0.2840999399
 C          0.2376600607        4.0163912726        0.2244884510
 C          0.4886953232        2.6756293811       -0.0526344624
 C         -0.5692357381        1.8162660527       -0.2900739274
 H         -0.3608768022        0.7850868307       -0.5353595767
 N          1.8037247582        2.1807863540       -0.0484376739
 S          2.1368380640        0.5659402465       -0.3520520879
 O          1.8368291558        0.2206456792       -1.7256986488
 O          1.5129458616       -0.2346344955        0.6709108509
 C          3.9026711291        0.5838450493       -0.1113929513
 C          4.3885599138        0.6049951943        1.1822358408
 C          5.7588575715        0.6492476233        1.3833780700
 C          6.6163115968        0.6726939531        0.2931518346
 C          6.1145583392        0.6480689355       -0.9992287196
 C          4.7445719747        0.6042241032       -1.2067267479
 H          4.3079845235        0.5756505403       -2.1920962518
 H          6.7833932994        0.6624334022       -1.8445876540
 H          7.6824591265        0.7069204051        0.4524915950
 H          6.1520565548        0.6650772694        2.3870488967
 H          3.6825556212        0.5769739640        1.9962837558
 H          2.5011909256        2.8164830859       -0.4047395583
 H          1.0586475401        4.6940423301        0.3985831505
 H         -1.2730529040        5.4939610385        0.4984821904
 H         -3.1423922617        3.9395982498        0.1559284054
 H         -3.1226102482        1.1231337644       -1.5192744826
 C         -4.3125085685        1.6493621762        0.1808232782
 C         -5.2907001307        2.4727896783       -0.6013984978
 C         -5.5727004013        1.0253644549       -0.3371048739
 H         -6.3479843170        0.7671275252        0.3682981575
 H         -5.4757331473        0.3259369405       -1.1548215302
 H         -5.8781039322        3.2107871252       -0.0762484866
 H         -5.0157611902        2.7570246558       -1.6060300316
 H         -4.2377506568        1.8154350286        1.2496114455
