  62
        -98.94442798
 C         -1.9413657092       -0.8643677054        0.0552697622
 C         -2.4034054519        0.4655743638        0.2030275950
 C         -3.8187842101        0.6078388332        0.5697203255
 C         -4.5744107569       -0.4876548684        0.7670666548
 C         -6.0258431347       -0.5035227439        1.1637213810
 C         -6.9964484365       -0.3449791671       -0.0146519058
 C         -7.0619741601        1.0579062863       -0.6196721130
 H         -7.9300347727        1.0811790757       -1.2815247033
 H         -7.2373170766        1.7864402968        0.1724939217
 C         -5.8178899518        1.4596032428       -1.4243551425
 H         -6.1257809648        1.9123269114       -2.3696320238
 H         -5.2389139829        0.5667044134       -1.6714356073
 C         -4.9032027756        2.4615812071       -0.7196185622
 H         -4.0375222918        2.6461754933       -1.3610874386
 H         -5.4304848048        3.4089324474       -0.5862809297
 C         -4.3874141357        1.9924507212        0.6471320265
 H         -3.5833702613        2.6635960035        0.9594359123
 H         -5.1871386674        2.0362383932        1.3862066572
 H         -7.9931932431       -0.6079179576        0.3469224121
 H         -6.7241104198       -1.0638866999       -0.7907615841
 H         -6.2091778691       -1.4728996885        1.6321046278
 H         -6.2135482509        0.2790788580        1.8993227286
 O         -4.0822056979       -1.7491758339        0.6434398963
 C         -2.7664492569       -1.9684934513        0.2694667075
 O         -2.4527872580       -3.1724138579        0.1732475961
 H          1.5455627761        0.7081948245       -0.7574548593
 C          1.4200209350        0.4144285584        0.2704841205
 C          0.4364411835       -0.4895441671        0.6369204456
 C          0.3019913222       -0.8207114754        1.9837059401
 C          1.1180601200       -0.2466144679        2.9377726900
 C          2.0946107822        0.6626013662        2.5687103816
 C          2.2414932107        0.9963529782        1.2283991508
 N          3.2098451250        1.9325749746        0.8333750521
 S          4.1665040851        1.6726073226       -0.5105756348
 O          5.2416709647        2.6305427652       -0.3770494528
 O          3.3822914783        1.7576690724       -1.7152437024
 C          4.7986872752        0.0196912940       -0.2913141520
 C          4.1709971547       -1.0426475930       -0.9088684496
 C          4.6388460120       -2.3255555437       -0.6706496583
 C          5.7184143788       -2.5228718399        0.1760995298
 C          6.3409294637       -1.4440283113        0.7859761760
 C          5.8757824454       -0.1599888806        0.5550340296
 H          6.3379748279        0.7064276393        0.9996740838
 H          7.1836644622       -1.6004358280        1.4399142470
 H          6.0778446364       -3.5233113629        0.3587138649
 H          4.1572437126       -3.1651604906       -1.1461803778
 H          3.3379375815       -0.8508249025       -1.5644286256
 H          3.7544623818        2.3148169988        1.5923737742
 H          2.7274718531        1.1206062388        3.3136138265
 H          0.9955920232       -0.5080714139        3.9780523183
 H         -0.4646225957       -1.5280707817        2.2705426358
 C         -0.5031123734       -1.1288777005       -0.3557357731
 H         -0.3696523790       -2.2191257866       -0.3012869176
 C         -0.2822916750       -0.6834593047       -1.7857669356
 C          0.7329079067       -1.3762927061       -2.6421691374
 C         -0.7295398316       -1.5781480170       -2.9009884356
 H         -1.1678498866       -1.1280741799       -3.7791533216
 H         -1.1714671154       -2.5258455830       -2.6286271602
 H          1.2781241485       -2.1974127938       -2.2012565322
 H          1.3043039415       -0.7862652824       -3.3438586049
 H         -0.4221506709        0.3832196151       -1.9212897394
 O         -1.6783033801        1.4812898756        0.0411518605
