  62
        -98.93951923
 C          1.1796183202        1.4921051816        0.6521658491
 C          2.2144929043        1.3157987647       -0.2977625245
 C          3.2055469646        0.2651426594        0.0023172597
 C          3.0797134780       -0.4673975578        1.1208273803
 C          3.9851529449       -1.5558558408        1.6420058458
 C          4.5398981764       -2.5669050838        0.6290613911
 C          3.6004419376       -2.8981630678       -0.5396430454
 H          3.5079099779       -3.9826089936       -0.6213177558
 H          2.6064404155       -2.4932821264       -0.3464745429
 C          4.1042029178       -2.3661949225       -1.8830844358
 H          5.1793331612       -2.5451679734       -1.9532774437
 H          3.6256259034       -2.9300141446       -2.6870825823
 C          3.8247151663       -0.8861691268       -2.1395287190
 H          2.7529970009       -0.7312433155       -2.2909956844
 H          4.3238257964       -0.6046138042       -3.0697500760
 C          4.2817447088        0.0719846282       -1.0273940217
 H          5.2131143122       -0.2622767262       -0.5768541468
 H          4.4465723592        1.0545586336       -1.4775916306
 H          5.4863939911       -2.2022252162        0.2326092201
 H          4.7649516314       -3.4780012117        1.1862040245
 H          4.8199593529       -1.0791916304        2.1644109308
 H          3.3960445912       -2.0800485235        2.3987797334
 O          2.0563667534       -0.2736705605        2.0023297141
 C          1.0949199627        0.6985614543        1.7969678271
 O          0.2299521512        0.7570861606        2.6955633278
 H         -2.1386071637        1.0917909717        0.8376416650
 C         -1.9716721310        1.2978850686       -0.2091140381
 C         -0.8737811924        2.0572555484       -0.5944847799
 C         -0.6834792055        2.3213496067       -1.9460855895
 C         -1.5748420409        1.8320364955       -2.8839842956
 C         -2.6645437936        1.0725284107       -2.4980249981
 C         -2.8650429713        0.8035967416       -1.1483879331
 N         -3.9795365245        0.0603735419       -0.7324074745
 S         -3.8955705010       -1.0005703935        0.5534853631
 O         -5.0745188583       -1.8261198768        0.3994923131
 O         -3.7906495895       -0.2766017912        1.7937957016
 C         -2.4426489378       -1.9911615786        0.2601459727
 C         -1.3072335499       -1.8184262365        1.0234360126
 C         -0.1983077355       -2.6071261696        0.7570153122
 C         -0.2396015694       -3.5427131369       -0.2641466014
 C         -1.3890246005       -3.7025825723       -1.0237691777
 C         -2.5014146424       -2.9216780548       -0.7602051716
 H         -3.4202611277       -3.0315346354       -1.3129658964
 H         -1.4193024390       -4.4336969337       -1.8153985711
 H          0.6272150570       -4.1525385904       -0.4648678469
 H          0.6904787271       -2.4772879422        1.3549324711
 H         -1.2943130125       -1.0801316400        1.8106072351
 H         -4.5441449040       -0.3102008984       -1.4825066202
 H         -3.3602512524        0.6946359416       -3.2315372967
 H         -1.4164642574        2.0419912865       -3.9308649169
 H          0.1769955559        2.8885760272       -2.2598868575
 C          0.0851565720        2.5331243148        0.4708243076
 H         -0.4632720701        2.5557715326        1.4226950502
 C          0.6371909892        3.9181445405        0.2017537472
 C         -0.2660803921        5.1023946742        0.3618353294
 C          0.8358588683        4.8608555083        1.3484132796
 H          1.6945680709        5.5153252187        1.3346570612
 H          0.5699605249        4.5119944760        2.3361219544
 H         -0.1665850532        5.9252178984       -0.3292087130
 H         -1.2808207824        4.9151808558        0.6805202604
 H          1.3728425448        3.9460503857       -0.5909418331
 O          2.3356997049        2.0031347735       -1.3435360539
