  62
        -98.94278567
 C         -1.1841704695       -1.6779820310        0.2076162587
 C         -1.6066781903       -0.7920800519        1.2240019891
 C         -2.8280683509       -0.0134637228        0.9573659395
 C         -3.4448037108       -0.1591915628       -0.2280227606
 C         -4.6501277614        0.5839387664       -0.7341689902
 C         -4.2213921825        1.8297579172       -1.5286183296
 C         -4.0415594736        3.0958922069       -0.6931899990
 H         -3.6367470042        3.8654242776       -1.3547397086
 H         -5.0188143639        3.4392378159       -0.3454946388
 C         -3.1108341835        2.9568146871        0.5141029710
 H         -2.2119467430        2.4074830481        0.2242896107
 H         -2.7849438243        3.9600172773        0.7982130015
 C         -3.7866575629        2.2932210260        1.7234281806
 H         -3.6264141435        2.9123544857        2.6089337709
 H         -4.8636031229        2.2650539551        1.5570831306
 C         -3.2803923117        0.8878130762        2.0738714699
 H         -4.0535419713        0.3656334953        2.6485101997
 H         -2.4085228618        0.9729556967        2.7305109600
 H         -3.2834639923        1.5981347082       -2.0410140497
 H         -4.9721853326        2.0337821869       -2.2951707795
 H         -5.3152445017        0.8478624455        0.0827102399
 H         -5.1735063108       -0.0967888537       -1.4089234906
 O         -2.9914519600       -1.0078251419       -1.1919567310
 C         -1.8503471294       -1.7707285110       -1.0136146713
 O         -1.5441704788       -2.4767715903       -1.9934851417
 O         -0.9794251904       -0.6473538619        2.3096696592
 C          0.0929432712       -2.4713050500        0.4069002583
 C          1.1539781008       -2.0159768486       -0.5670188214
 C          2.1015527516       -2.8674425576       -1.1220198318
 C          3.0627905712       -2.3726903063       -1.9870008816
 C          3.1177045900       -1.0263311761       -2.3004815509
 C          2.1767423292       -0.1659095372       -1.7465227705
 C          1.2095624897       -0.6685861384       -0.8924537008
 H          0.4675559491        0.0045753807       -0.4942835104
 N          2.1790919781        1.2067264030       -2.0327134398
 S          1.7046348871        2.3020861620       -0.8610296193
 O          0.2764503271        2.2585925206       -0.6753801793
 O          2.2415496860        3.5648171727       -1.3229412887
 C          2.5706170575        1.7887314320        0.6119060605
 C          3.9404699474        1.9742460832        0.6280813106
 C          4.6663325877        1.5448604033        1.7260024604
 C          4.0140288982        0.9320754422        2.7857831201
 C          2.6397785284        0.7584961610        2.7575011700
 C          1.9067622780        1.1904954409        1.6624719202
 H          0.8367881981        1.0578485900        1.6245857201
 H          2.1218868688        0.2824951302        3.5750237997
 H          4.5781251785        0.5901522122        3.6391632599
 H          5.7349389476        1.6848547042        1.7518637905
 H          4.4082749370        2.4652652740       -0.2097469192
 H          2.9690542678        1.5358792039       -2.5669867496
 H          3.8697675397       -0.6450566851       -2.9738340607
 H          3.7864117017       -3.0464283355       -2.4200020219
 H          2.0817392925       -3.9185444577       -0.8848769123
 H          0.4404000410       -2.2135699202        1.4196405685
 C         -0.1754445075       -3.9606726702        0.3502620576
 C          0.6329999433       -4.9088419500        1.1834378272
 C         -0.7945071470       -4.6280496214        1.5408799573
 H         -1.5330510863       -5.3977186019        1.3746495169
 H         -0.9951147875       -4.0111749620        2.4048165276
 H          0.8745221341       -5.8776176695        0.7727416867
 H          1.4024258529       -4.4905375196        1.8145714774
 H         -0.5003339772       -4.2864500100       -0.6312639326
