  62
        -98.93686075
 C         -2.1420494865       -0.9684398565       -0.0178974638
 C         -2.8668837961       -0.2537907631        0.9638518915
 C         -3.7334753009        0.8274466745        0.4716885575
 C         -3.7626948092        1.0929994906       -0.8473639846
 C         -4.6535455798        2.1039106498       -1.5118441065
 C         -6.0864505069        1.5454903515       -1.6276005261
 C         -7.1270893754        2.3031761270       -0.8028705178
 H         -7.3601505759        3.2450131470       -1.3039476981
 H         -8.0379722043        1.7009091227       -0.7931821845
 C         -6.7287836814        2.6271140162        0.6403350291
 H         -7.6422182327        2.9141311360        1.1655732673
 H         -6.0752954523        3.5007450878        0.6541100535
 C         -6.0490698094        1.4939821255        1.4197946288
 H         -6.4210230150        1.5170433676        2.4461843002
 H         -6.3221405478        0.5233778661        1.0051778017
 C         -4.5145041192        1.6008252790        1.4981326605
 H         -4.2196532267        2.6536660608        1.4655891768
 H         -4.1851671162        1.1986529392        2.4610584956
 H         -6.0709448973        0.4973393014       -1.3216883123
 H         -6.4000645541        1.5626759192       -2.6723657189
 H         -4.6485393901        3.0303980934       -0.9418290262
 H         -4.2406396754        2.2998116806       -2.5015229533
 O         -3.0237804254        0.4061013600       -1.7567905345
 C         -2.1962750901       -0.6393573698       -1.3721941606
 O         -1.5763538303       -1.1760100010       -2.3081990265
 H          0.0599391987        0.1887244267        0.7209178346
 C          0.7073799650       -0.5688453574        0.2947547050
 C          0.1926855879       -1.8363206732        0.0498017333
 C          1.0405093566       -2.8004231351       -0.4794476776
 C          2.3584882968       -2.4926235581       -0.7704857037
 C          2.8601212268       -1.2253644025       -0.5402133909
 C          2.0246451262       -0.2556920823       -0.0008542410
 N          2.5260907037        1.0397771183        0.2305237502
 S          3.8858265464        1.1737321303        1.2104760307
 O          3.9403854233        0.1080549711        2.1848761308
 O          3.8434458412        2.5215316324        1.7349694362
 C          5.2517015116        1.0335857929        0.0776125718
 C          5.3081270618        1.9095667775       -0.9887648027
 C          6.3710924336        1.8182428272       -1.8730562814
 C          7.3555237097        0.8612945593       -1.6749217008
 C          7.2861810853       -0.0079770057       -0.5970355887
 C          6.2246452325        0.0766831807        0.2904865201
 H          6.1242366336       -0.5813925600        1.1386663511
 H          8.0524562983       -0.7509181242       -0.4446467611
 H          8.1813448805        0.7927566454       -2.3652706133
 H          6.4280011740        2.4918380327       -2.7129226660
 H          4.5244578548        2.6395658796       -1.1051312203
 H          1.8185681880        1.6945211303        0.5321072037
 H          3.8833242785       -0.9800945891       -0.7732325640
 H          3.0033639022       -3.2511091783       -1.1870458343
 H          0.6686968569       -3.7941222733       -0.6672627896
 C         -1.2453057472       -2.1122990294        0.4164546563
 H         -1.3123056806       -2.1342923901        1.5152158975
 C         -1.7675398509       -3.4257333673       -0.1280351309
 C         -1.5604628919       -4.6986519564        0.6354508940
 C         -2.9242690254       -4.0827499804        0.5616480004
 H         -3.6787715748       -4.5648274381       -0.0416215203
 H         -3.3158968360       -3.5964357772        1.4434277369
 H         -1.3808789977       -5.6084274780        0.0827468950
 H         -1.0283933263       -4.6384855762        1.5729357665
 H         -1.7426191923       -3.4646844201       -1.2112370083
 O         -2.7871323908       -0.5045420832        2.1982651508
