  62
        -98.94737554
 C          2.5292114251        0.2273032550        0.0220261549
 C          2.2901874101        1.2768710751       -0.8950499833
 C          1.7021481106        2.4972888522       -0.3336055576
 C          1.4296675024        2.5608936663        0.9826080680
 C          0.8406440304        3.7394725859        1.7098877433
 C         -0.6905296348        3.8075915659        1.6320799603
 C         -1.2476778757        4.2613208566        0.2822906184
 H         -2.3009799333        4.5052192681        0.4337196361
 H         -0.7416193365        5.1744502750       -0.0338340529
 C         -1.1444941348        3.2017315656       -0.8229116886
 H         -2.0901915758        3.1436684630       -1.3680394562
 H         -0.9885786485        2.2172328719       -0.3749562440
 C         -0.0483821201        3.4540604195       -1.8584421954
 H         -0.0390129382        2.6023778897       -2.5442374988
 H         -0.2872389188        4.3513187107       -2.4350219575
 C          1.3611659990        3.6136292303       -1.2745082834
 H          2.0774274635        3.5806639095       -2.0997086683
 H          1.4513998996        4.5759005176       -0.7701737077
 H         -1.0936939948        2.8208544987        1.8739641541
 H         -1.0274472069        4.5090314497        2.3990625272
 H          1.2699673488        4.6641632119        1.3226335857
 H          1.1292744010        3.6316964008        2.7576597297
 O          1.6922421402        1.5365241875        1.8359122679
 C          2.2022251764        0.3343879788        1.3739782283
 O          2.3407565857       -0.5365772458        2.2553788948
 O          2.5602897317        1.1977842680       -2.1256650879
 C          3.0422066016       -1.1067994525       -0.4925736905
 C          2.0036468664       -2.1615014661       -0.1962772510
 C          2.2865725660       -3.3964851717        0.3709927093
 C          1.2593669914       -4.2705670289        0.6855680479
 C         -0.0611113999       -3.9269763774        0.4637577504
 C         -0.3519633282       -2.7015680684       -0.1270634429
 C          0.6798444750       -1.8503379974       -0.4801823569
 H          0.4443040908       -0.9030221730       -0.9440603813
 N         -1.6782564947       -2.3107581547       -0.3820341307
 S         -2.0258589580       -0.6567577772       -0.3546139712
 O         -1.7227343027       -0.1123300481       -1.6542375650
 O         -1.3986828107       -0.0219176034        0.7826526593
 C         -3.7938901330       -0.7073734321       -0.1291536518
 C         -4.6040572221       -0.8820484895       -1.2351136528
 C         -5.9762294064       -0.9564172669       -1.0550378235
 C         -6.5123307764       -0.8567233982        0.2203495860
 C         -5.6870055558       -0.6782486091        1.3204834766
 C         -4.3137383299       -0.6045074857        1.1472042644
 H         -3.6326909740       -0.4580079774        1.9705841033
 H         -6.1059063754       -0.5964044065        2.3104666045
 H         -7.5804668873       -0.9144123988        0.3579073686
 H         -6.6211736504       -1.0910882914       -1.9082452441
 H         -4.1408000907       -0.9446874989       -2.2059221462
 H         -2.3566104574       -2.8512841020        0.1368353704
 H         -0.8607622779       -4.5951786293        0.7449324438
 H          1.4908231041       -5.2246184831        1.1345830201
 H          3.3075275864       -3.6671967852        0.5851333881
 H          3.1243869266       -0.9908938972       -1.5839848429
 C          4.4098462086       -1.4217577959        0.0738046723
 C          5.3696225342       -2.2753337926       -0.6987572137
 C          5.6173299445       -0.8039427755       -0.5629129028
 H          6.4218286320       -0.4702568080        0.0749068768
 H          5.4529521575       -0.1732999734       -1.4245169099
 H          6.0095730806       -2.9531089593       -0.1543458916
 H          5.0456543267       -2.6470213600       -1.6590448616
 H          4.4003526154       -1.5052545354        1.1547718162
