  62
        -98.93237664
 C         -2.1961915586       -0.7989989906       -0.3581061516
 C         -3.5418848543       -1.1149998165       -0.0410766338
 C         -4.3713023037       -0.0394048528        0.5292793614
 C         -3.8171304856        1.1650377364        0.7591446930
 C         -4.3878087632        2.4286369757        1.3687808561
 C         -5.8919604981        2.5854943527        1.5753293916
 C         -6.7047376297        2.7023149814        0.2859415349
 H         -7.7648712361        2.6971806228        0.5480955474
 H         -6.4814486227        3.6664231531       -0.1778983668
 C         -6.4452559972        1.6191062979       -0.7580042909
 H         -5.4064475340        1.6721575522       -1.0901662537
 H         -7.0723613584        1.8353195897       -1.6271731988
 C         -6.7511676966        0.1918035419       -0.3088173733
 H         -6.6721507661       -0.4546992500       -1.1871231918
 H         -7.7782628206        0.1335132452        0.0564589138
 C         -5.8146339715       -0.3770730393        0.7706770414
 H         -6.1213651197       -0.0629695816        1.7654965163
 H         -5.8829916891       -1.4683667087        0.7366487762
 H         -6.0334557348        3.5116363128        2.1390978813
 H         -6.2720219840        1.7794762484        2.1960971188
 H         -4.0239765062        3.2515936361        0.7451282664
 H         -3.8906557492        2.5370794649        2.3392356163
 O         -2.5048023643        1.4117253873        0.4804077339
 C         -1.6641582491        0.4609498536       -0.0831214658
 O         -0.5088243392        0.8804353876       -0.2814773180
 O         -4.0354117710       -2.2600889454       -0.2216401679
 C         -1.3388026632       -1.9149544297       -0.9313521076
 C         -0.0777579217       -2.0476017760       -0.1178706844
 C         -0.1203932741       -2.7132469698        1.1034668240
 C          1.0054219886       -2.7963706264        1.9012094271
 C          2.1930699853       -2.2087525736        1.5022485093
 C          2.2405905180       -1.5308554113        0.2919710580
 C          1.1145866127       -1.4675791688       -0.5186968501
 H          1.1554832298       -0.9243733866       -1.4498680534
 N          3.4407878896       -0.9214865665       -0.1210103306
 S          4.3311837331       -0.1030390984        1.0587730520
 O          5.1552995088       -1.0658578138        1.7490235150
 O          3.4632007964        0.6923942193        1.8974856345
 C          5.3536844683        0.9468067238        0.0448880777
 C          6.6196661958        0.5237519569       -0.3116961923
 C          7.3947227384        1.3396210356       -1.1208482654
 C          6.8930566173        2.5562092282       -1.5581715460
 C          5.6196130748        2.9670318663       -1.1923787486
 C          4.8389668426        2.1560538347       -0.3839020494
 H          3.8465490470        2.4397496615       -0.0689419567
 H          5.2317287573        3.9137777213       -1.5326565306
 H          7.4978613981        3.1905917973       -2.1867323639
 H          8.3854888071        1.0251154976       -1.4064358631
 H          6.9677808475       -0.4262739109        0.0586496684
 H          3.2939959212       -0.3286722994       -0.9271187952
 H          3.0746283746       -2.2467391928        2.1221605487
 H          0.9587870055       -3.3159821968        2.8467232055
 H         -1.0532472570       -3.1542343993        1.4274923456
 H         -1.9413133119       -2.8242191230       -0.7755698334
 C         -1.0771759497       -1.8223139723       -2.4270643528
 C         -2.1662945257       -1.3841385440       -3.3590325517
 C         -0.9539435284       -0.5256590398       -3.1671550605
 H         -0.2368947721       -0.4684540145       -3.9734009842
 H         -1.0526349595        0.3905716520       -2.6069245664
 H         -2.2878063923       -1.9065849817       -4.2957930231
 H         -3.0957770495       -1.0595668982       -2.9142063567
 H         -0.4452381090       -2.6359670320       -2.7704884797
