  62
        -98.94043400
 C         -2.4740828244       -1.1839037628        0.0211168937
 C         -2.4771411005        0.0284635631       -0.7093372627
 C         -3.8011829023        0.6116317446       -0.9721259007
 C         -4.9025922588       -0.0298020033       -0.5403771959
 C         -6.3064351750        0.4791376621       -0.6912202619
 C         -6.7262753037        1.3165722410        0.5250141624
 C         -5.7078855046        2.3862872397        0.9193852636
 H         -6.1234020943        2.9337930317        1.7680855254
 H         -4.7943075246        1.8986849078        1.2673786004
 C         -5.3565425443        3.3729630154       -0.2028142694
 H         -6.1198789267        3.3367153955       -0.9807972868
 H         -5.3588349811        4.3850547917        0.2071799165
 C         -3.9804270418        3.1519939988       -0.8339749076
 H         -3.7449111902        4.0231419902       -1.4511940686
 H         -3.2206433212        3.0923588602       -0.0502359048
 C         -3.8467555888        1.9110063428       -1.7257579840
 H         -4.6489756423        1.9007222967       -2.4665200046
 H         -2.8912261459        1.9829412357       -2.2540118117
 H         -7.6854647610        1.7883345160        0.3045785888
 H         -6.8645243391        0.6455538348        1.3758600824
 H         -6.3749717553        1.0761464689       -1.5983673588
 H         -6.9752862241       -0.3785275119       -0.7792842856
 O         -4.8588294104       -1.2059145669        0.1366379383
 C         -3.6487366089       -1.8054759338        0.4438499166
 O         -3.7488920924       -2.8687023315        1.0890118191
 O         -1.4306451090        0.5974976554       -1.1187423303
 C         -1.1576483384       -1.8625127767        0.3511527301
 C         -0.2383743504       -0.9092350652        1.0755922657
 C         -0.7423254108       -0.1523024017        2.1303826185
 C          0.0665402869        0.7361486096        2.8111462847
 C          1.3961459041        0.8862256943        2.4585121085
 C          1.9163827354        0.1183669512        1.4236572335
 C          1.1008984202       -0.7766246955        0.7442142475
 H          1.5270572555       -1.3534334545       -0.0587016818
 N          3.2794282188        0.2115768535        1.0917619185
 S          3.7852008702        0.0221760981       -0.5067636469
 O          3.0832743272        0.9376787545       -1.3779601073
 O          3.7213462571       -1.3744569325       -0.8559984597
 C          5.4913947133        0.5154074138       -0.3401625604
 C          6.3829720661       -0.3786960311        0.2222529285
 C          7.7059419918        0.0027723391        0.3778394747
 C          8.1137541204        1.2645591630       -0.0294233381
 C          7.2082860730        2.1502080281       -0.5937637524
 C          5.8828803515        1.7754355095       -0.7505182837
 H          5.1450679284        2.4272037033       -1.1905319869
 H          7.5286804229        3.1290774299       -0.9123824527
 H          9.1444544663        1.5585327135        0.0910387724
 H          8.4135666009       -0.6837433680        0.8139510383
 H          6.0223968354       -1.3509602142        0.5146711278
 H          3.7222845687        1.0191526863        1.5093972188
 H          2.0257100384        1.5886161102        2.9834891876
 H         -0.3424985688        1.3242761947        3.6191814582
 H         -1.7841865823       -0.2635467330        2.4007507605
 H         -1.4026344050       -2.6892158012        1.0350470436
 C         -0.5454643588       -2.4416147303       -0.9077863766
 C          0.3086315125       -3.6704866356       -0.8377655109
 C         -1.0624244779       -3.7438414310       -1.4379088721
 H         -1.1546345725       -3.8652238360       -2.5067837096
 H         -1.8437875865       -4.2309119230       -0.8724601933
 H          1.1666066673       -3.7370565352       -1.4902902021
 H          0.4602054474       -4.1170720220        0.1334439926
 H         -0.2793971251       -1.6772820308       -1.6307639551
