  62
        -98.94492340
 C          2.1730284058        0.9814394714        0.5248822693
 C          2.2920432681        0.2014839654       -0.6513660198
 C          3.0356404631       -1.0568647223       -0.5067562375
 C          3.5001061382       -1.4268580488        0.7002114010
 C          4.2504123515       -2.6934622009        1.0116081848
 C          5.7564791754       -2.6135362539        0.7260938519
 C          6.1394874770       -2.6190209698       -0.7543378335
 H          7.2179406265       -2.7811249563       -0.8050147859
 H          5.6594964765       -3.4640378459       -1.2489428257
 C          5.7998846334       -1.3218478135       -1.5016357079
 H          5.6205007459       -0.5217931041       -0.7798353361
 H          6.6542376645       -1.0184186068       -2.1107103587
 C          4.5930625377       -1.4250173220       -2.4345116081
 H          4.8113415167       -2.1289029027       -3.2405926972
 H          4.4199999671       -0.4430959665       -2.8819363054
 C          3.2959548583       -1.8642179078       -1.7423011368
 H          2.4622615991       -1.6951860819       -2.4287215209
 H          3.3376183063       -2.9265376254       -1.5015974262
 H          6.1544006938       -1.7147195358        1.2026352738
 H          6.2237162706       -3.4778366030        1.2036575836
 H          4.1113009314       -2.8827395450        2.0783453633
 H          3.8151160660       -3.5228954539        0.4531060652
 O          3.3115754392       -0.6759213678        1.8189300645
 C          2.6579146517        0.5448607399        1.7568264067
 O          2.5619133970        1.1316440790        2.8551650181
 O          1.8062357423        0.5339645858       -1.7628722625
 C          1.4349827399        2.3089595697        0.4857428982
 C         -0.0049648396        2.0601144496        0.1053810922
 C         -0.6533924737        2.7021582715       -0.9401458990
 C         -1.9668010248        2.3878247402       -1.2465146346
 C         -2.6610180827        1.4401917740       -0.5174761767
 C         -2.0241154997        0.7987995632        0.5373726222
 C         -0.7105685848        1.1154228435        0.8415984999
 H         -0.2118344645        0.6098056751        1.6607058210
 N         -2.7266077874       -0.1619721253        1.2932441863
 S         -3.3338844574       -1.4840905253        0.4473044090
 O         -3.4547964180       -2.5392765753        1.4306708618
 O         -2.5341319684       -1.7818037666       -0.7188494680
 C         -4.9628481160       -0.9577177559       -0.0412403351
 C         -5.3185200648       -0.9681374578       -1.3756195662
 C         -6.5950382269       -0.5604747419       -1.7311983982
 C         -7.4873186916       -0.1523947195       -0.7515372553
 C         -7.1144921482       -0.1494387682        0.5845595488
 C         -5.8407058005       -0.5570043350        0.9471308722
 H         -5.5110626649       -0.5733574624        1.9724923342
 H         -7.8109438142        0.1691072661        1.3433152529
 H         -8.4793123762        0.1654785273       -1.0311662119
 H         -6.8862385706       -0.5619021485       -2.7692746692
 H         -4.5875611963       -1.2865718280       -2.1017482912
 H         -2.2077247485       -0.4861998534        2.0976457836
 H         -3.6817241865        1.1904152741       -0.7570276767
 H         -2.4562368629        2.8880486161       -2.0681231247
 H         -0.1272629736        3.4383511252       -1.5248806138
 H          1.4518750738        2.6958883497        1.5151056879
 C          2.1486938001        3.2909242876       -0.4180907426
 C          2.0018888617        4.7643518108       -0.1892480302
 C          3.2953396861        4.0807697700        0.1348894029
 H          4.1500746673        4.2617671873       -0.4994086549
 H          3.5488467414        3.9266397112        1.1739794478
 H          1.9711368201        5.4192071508       -1.0467677353
 H          1.3780685346        5.0822734156        0.6322994993
 H          2.2335784209        2.9341044879       -1.4377317702
