  62
        -98.93777081
 C         -1.2940875542       -1.6516096151        0.3932782676
 C         -1.6534918138       -0.7270135490       -0.6144859578
 C         -2.6508379671        0.2987079266       -0.2403387585
 C         -3.1049176338        0.3390478468        1.0247156599
 C         -4.1279947371        1.2684957214        1.6266291548
 C         -5.4243421119        1.4454932922        0.8188211866
 C         -5.5779980379        2.8423932043        0.2161243432
 H         -6.6386293332        3.0300482437        0.0347351584
 H         -5.2383452801        3.5778717436        0.9484936379
 C         -4.8368362440        3.0591879034       -1.1018793015
 H         -5.3379017360        2.4980772837       -1.8935400340
 H         -4.9174211910        4.1190250442       -1.3544851813
 C         -3.3566590435        2.6687958719       -1.0919579761
 H         -2.8997969020        2.9611568098       -0.1473224106
 H         -2.8597077866        3.2409783589       -1.8781093938
 C         -3.1058248450        1.1797644697       -1.3731575959
 H         -4.0029761826        0.7328326482       -1.8128751116
 H         -2.3210158259        1.0743050860       -2.1288499196
 H         -5.4769204676        0.6899202830        0.0358048798
 H         -6.2655260995        1.2718728235        1.4917704202
 H         -4.3559282057        0.8460404838        2.6077659242
 H         -3.6651338363        2.2414288178        1.8061560188
 O         -2.6473380972       -0.5117043716        1.9893858924
 C         -1.7567545505       -1.5286557896        1.7020876175
 O         -1.4500518529       -2.2384367822        2.6829419719
 H          1.1385812907       -1.3247250609        1.6923334846
 C          1.6445808766       -1.4772501703        0.7465531779
 C          1.0227129906       -2.2449088345       -0.2317181556
 C          1.6765717373       -2.4352289007       -1.4405863945
 C          2.9192956654       -1.8646077220       -1.6618001567
 C          3.5336653016       -1.0998037333       -0.6880442519
 C          2.8877058461       -0.9075988923        0.5273049726
 N          3.4978642840       -0.1072598250        1.5143719975
 S          3.9496072801        1.4281780301        1.0120433703
 O          5.2417775202        1.3612793259        0.3768914939
 O          3.8714742082        2.2600720896        2.1925558314
 C          2.7089930852        1.8962354148       -0.1806625444
 C          3.0547984963        2.0948741207       -1.5011666503
 C          2.0583599160        2.3976034662       -2.4153593814
 C          0.7408996870        2.4893541891       -1.9959857356
 C          0.4099680982        2.2897499383       -0.6650239704
 C          1.4011940758        1.9880523209        0.2526632649
 H          1.1733552106        1.8267029811        1.2951683726
 H         -0.6165824822        2.3503852305       -0.3432953645
 H         -0.0371790281        2.7119043028       -2.7086987125
 H          2.3105747855        2.5524643266       -3.4519927749
 H          4.0906600020        2.0067103180       -1.7853934559
 H          2.9639831587       -0.0539253840        2.3701140523
 H          4.4982972269       -0.6448482641       -0.8448982668
 H          3.4148643723       -2.0164037039       -2.6082773526
 H          1.2102362610       -3.0209579155       -2.2147797033
 C         -0.3444648209       -2.7985673549        0.0871941902
 H         -0.2614766756       -3.3745754197        1.0201922978
 C         -0.9129088184       -3.6965107970       -0.9901372163
 C         -0.4513541098       -5.1180978299       -1.0933158238
 C         -1.8310893307       -4.8121957412       -0.5949132227
 H         -2.6730092112       -5.0378273594       -1.2320754948
 H         -2.0361200538       -4.9402736056        0.4583658076
 H          0.2818608849       -5.4584232383       -0.3777334578
 H         -0.3470635661       -5.5578709709       -2.0734696031
 H         -1.1417765856       -3.1642306118       -1.9052391831
 O         -1.1820866969       -0.7556319335       -1.7791676170
