  62
        -98.93910242
 C          2.3520514437        1.1944205973       -0.0827634604
 C          3.4338324329        0.8502661659        0.7626774148
 C          4.3592347044       -0.1943043518        0.2840629441
 C          4.1188502076       -0.7717866892       -0.9078063078
 C          4.8869834819       -1.8768207955       -1.5835465517
 C          4.6138439235       -3.2556581817       -0.9629577436
 C          4.6320899625       -3.2869867965        0.5628383586
 H          3.8791263646       -2.5943467347        0.9434936017
 H          4.3349466597       -4.2911639962        0.8767132713
 C          5.9826196074       -2.9764507202        1.2041625742
 H          5.8747868230       -3.1413517919        2.2791723706
 H          6.7264978875       -3.6847786494        0.8330286097
 C          6.5133065653       -1.5561472824        0.9946740613
 H          6.9510952334       -1.4399198624        0.0068858828
 H          7.3239707214       -1.4031105411        1.7129025852
 C          5.4915602910       -0.4526817818        1.2489086579
 H          5.0258051198       -0.6125230998        2.2279404139
 H          6.0233489202        0.5022810819        1.3368476857
 H          3.6243130307       -3.5841238474       -1.2911971662
 H          5.3498634294       -3.9606520102       -1.3533947678
 H          4.5581813962       -1.8937769340       -2.6250966146
 H          5.9496367543       -1.6533312676       -1.5753223995
 O          3.0530887525       -0.4198013680       -1.6826699781
 C          2.1498993751        0.5568130961       -1.3058789925
 O          1.2448314422        0.7592923696       -2.1397972935
 H         -0.8254899733        1.9395472154       -1.1975918955
 C         -0.9516591496        1.5028339419       -0.2195777280
 C          0.0676112395        1.5985425178        0.7148191527
 C         -0.1076253905        0.9932638019        1.9563335895
 C         -1.2756322271        0.3165218649        2.2528690505
 C         -2.2888420645        0.2181703619        1.3147029670
 C         -2.1153982347        0.8015146981        0.0674581432
 N         -3.1312433033        0.6921126128       -0.8989004196
 S         -3.7808765493       -0.8308211397       -1.1831199498
 O         -2.8382389297       -1.8841301730       -0.8837175421
 O         -4.2859987372       -0.7815319193       -2.5380708309
 C         -5.1622021496       -0.9091162536       -0.0598208776
 C         -6.1032306006        0.1005289266       -0.1143964684
 C         -7.1869072632        0.0529184549        0.7478047532
 C         -7.3128226452       -0.9990279814        1.6429900424
 C         -6.3622420021       -2.0074207235        1.6825041566
 C         -5.2751170709       -1.9650539873        0.8231878294
 H         -4.5082505173       -2.7235228177        0.8219301290
 H         -6.4617230830       -2.8249592312        2.3783892370
 H         -8.1568037705       -1.0335174127        2.3136608532
 H         -7.9282828867        0.8351235337        0.7196208080
 H         -5.9697726005        0.8974640972       -0.8265996031
 H         -2.8938269371        1.1382771825       -1.7738232455
 H         -3.1975098824       -0.3182013706        1.5339095942
 H         -1.3992356882       -0.1431286776        3.2216840831
 H          0.6928224277        1.0495696460        2.6808101661
 C          1.3833683584        2.2636394340        0.3961043977
 H          1.8111700983        2.6408933918        1.3345757030
 C          1.2687555300        3.4127195919       -0.5832416320
 C          0.6385384610        4.6960171733       -0.1338263922
 C          2.1148734987        4.6325329872       -0.3817124654
 H          2.5150564008        5.1299127278       -1.2525347171
 H          2.7781173230        4.6447866395        0.4706529006
 H          0.2981696439        4.7497338343        0.8890863670
 H          0.0224918694        5.2409325687       -0.8325888180
 H          1.1007927341        3.0941626661       -1.6048226246
 O          3.6270937035        1.3952299883        1.8825545755
