  62
        -98.93606346
 C         -2.4885879952       -0.1311515454       -0.5947522306
 C         -2.1823276173       -0.6496329340        0.6871296336
 C         -1.7747290489       -2.0624265323        0.7232508262
 C         -1.7066445220       -2.7612840724       -0.4234966213
 C         -1.3062062632       -4.2044658241       -0.5322989207
 C          0.1977445382       -4.3643413413       -0.7873809540
 C          1.0797004570       -3.5680946097        0.1743257588
 H          0.9543728937       -2.4997332168       -0.0181744592
 H          2.1183138354       -3.8121805854       -0.0624825943
 C          0.8154661120       -3.8431814243        1.6612941705
 H          1.7758234390       -3.9432896360        2.1711555470
 H          0.2849304439       -4.7895158576        1.7777344154
 C          0.0447841856       -2.7307832550        2.3758529104
 H          0.4917501931       -1.7654794238        2.1256630194
 H          0.1489086276       -2.8793908661        3.4542560842
 C         -1.4560575080       -2.6551300960        2.0666552621
 H         -1.9156481650       -1.9882138249        2.8019932912
 H         -1.9067546418       -3.6451569497        2.1697421008
 H          0.4151716746       -4.0289618442       -1.8044712773
 H          0.4456008629       -5.4257001869       -0.7176498511
 H         -1.5854032320       -4.7190180592        0.3853725907
 H         -1.8543435104       -4.6461072912       -1.3669106683
 O         -1.9906348880       -2.2219990496       -1.6388999503
 C         -2.3710037493       -0.8959566450       -1.7531049534
 O         -2.5891939085       -0.5219667101       -2.9261682823
 H         -0.3794984982        1.2412162082       -1.1800112385
 C         -0.5942748917        1.9701512288       -0.4099266616
 C         -1.9171135934        2.1875065741       -0.0281026967
 C         -2.1516678571        3.1391040970        0.9553240676
 C         -1.0977253548        3.8198840692        1.5445320873
 C          0.2119081844        3.5600035249        1.1931945714
 C          0.4625327814        2.6159739549        0.2039877349
 N          1.7761875813        2.3009805061       -0.1952546852
 S          2.0804523268        0.6586934793       -0.4754928788
 O          1.7551309667        0.3539413832       -1.8479810200
 O          1.4352095695       -0.1431614999        0.5361672076
 C          3.8509423100        0.6122010042       -0.2655404742
 C          4.3891302492        0.0672437859        0.8843100585
 C          5.7662889311        0.0665581622        1.0443827952
 C          6.5760085125        0.6111296885        0.0592942558
 C          6.0207505252        1.1541070763       -1.0902897541
 C          4.6452539691        1.1558853996       -1.2577615177
 H          4.1682103498        1.5565677408       -2.1370035206
 H          6.6534576463        1.5740780559       -1.8553999589
 H          7.6469456523        0.6103461071        0.1867094708
 H          6.2002506697       -0.3578110158        1.9352961239
 H          3.7190017102       -0.3481879783        1.6198680260
 H          2.4706387288        2.6952595676        0.4260565326
 H          1.0294064090        4.0717254635        1.6779920980
 H         -1.3066195576        4.5508547061        2.3112070917
 H         -3.1464659989        3.3503972407        1.3017728930
 C         -2.9177905701        1.3238496538       -0.7602206596
 H         -2.7856828439        1.5403252935       -1.8348199410
 C         -4.4148065606        1.4104930442       -0.5033418130
 C         -5.0561538732        1.5816967163        0.8374805540
 C         -5.1841501069        2.6607495818       -0.1981431535
 H         -6.1435726688        2.7813510012       -0.6796182399
 H         -4.6460995128        3.5857921750       -0.0751218388
 H         -4.4097100769        1.7195597014        1.6886109876
 H         -5.9263428411        0.9795931542        1.0563776899
 H         -4.9135319190        0.7118076852       -1.1730937178
 O         -2.2624681470        0.0206431973        1.7478733589
