  62
        -98.94151310
 C          2.5695728664        0.0349960750        0.0916343487
 C          2.5331141703       -1.1184439572        0.9135745210
 C          2.0847843505       -2.3588984539        0.2746064293
 C          1.7224788529       -2.3452759578       -1.0206544972
 C          1.2063569066       -3.5175264193       -1.8093035058
 C         -0.2982013204       -3.7551767231       -1.6177133056
 C         -0.6885510059       -4.3868742219       -0.2805579419
 H         -1.7202266200       -4.7306971187       -0.3776185427
 H         -0.0665999358       -5.2636137837       -0.0943914181
 C         -0.6047164071       -3.4288308332        0.9160213900
 H         -0.5996240072       -2.3958644054        0.5579823364
 H         -1.5003618712       -3.5357540633        1.5337864690
 C          0.5995225477       -3.6510143507        1.8318913010
 H          0.5813362784       -2.8780404110        2.6051120912
 H          0.5106856320       -4.6229373006        2.3238149574
 C          1.9604537843       -3.5858333519        1.1271718067
 H          2.1154070408       -4.4817396069        0.5260469282
 H          2.7383965027       -3.5375436989        1.8937004485
 H         -0.8164328485       -2.7988882132       -1.7267650003
 H         -0.6318073809       -4.4157504491       -2.4215339973
 H          1.7598250289       -4.4187004390       -1.5433713618
 H          1.3902713594       -3.2905763354       -2.8615510065
 O          1.7941079803       -1.2262333724       -1.7852835149
 C          2.1629252426       -0.0034659177       -1.2442228604
 O          2.1039340795        0.9411065532       -2.0541632628
 O          2.8498327317       -1.1068373017        2.1354966179
 C          2.8777840399        1.3646013959        0.7583497207
 C          1.7725703145        2.3429095359        0.4394525250
 C          1.9752722925        3.6651514995        0.0721250468
 C          0.8936401805        4.4851604422       -0.2083308802
 C         -0.4000630512        4.0032305571       -0.1583947264
 C         -0.6126587205        2.6740341556        0.1981430755
 C          0.4657016932        1.8767186605        0.5320584291
 H          0.2886309571        0.8557048898        0.8402978393
 N         -1.9072776973        2.1255508746        0.1728769679
 S         -2.1722867680        0.4939401808        0.4422994260
 O         -1.9530704980        0.1508636589        1.8327565803
 O         -1.4348841778       -0.2642145400       -0.5358533204
 C         -3.9155701529        0.4162850045        0.0792084331
 C         -4.8315328741        0.4028351916        1.1135006715
 C         -6.1842300291        0.3711114062        0.8118922245
 C         -6.5957562624        0.3554099892       -0.5120307722
 C         -5.6646568355        0.3667906019       -1.5401959296
 C         -4.3112123880        0.3977447231       -1.2447215496
 H         -3.5503707165        0.3989339235       -2.0082683679
 H         -5.9874825212        0.3511330479       -2.5686600933
 H         -7.6485347790        0.3309912142       -0.7449046231
 H         -6.9099692586        0.3582135233        1.6089506562
 H         -4.4637766351        0.4068887228        2.1269150826
 H         -2.6398025057        2.7258966208        0.5193351965
 H         -1.2380937190        4.6358176161       -0.4051433875
 H          1.0654800300        5.5135536652       -0.4881427265
 H          2.9772188406        4.0529882952       -0.0116563274
 H          2.8211527003        1.1398075174        1.8383881814
 C          4.2749601991        1.9115003942        0.5077144798
 C          5.3789319085        1.0245948449        0.0166712487
 C          4.8263297250        2.0949479696       -0.8733614917
 H          5.4387554453        2.9631369732       -1.0686552464
 H          4.1973082843        1.8029167925       -1.6990453309
 H          6.3659223795        1.1559372172        0.4345388391
 H          5.1311812753       -0.0030967457       -0.2078158257
 H          4.5579008854        2.6560524545        1.2457131137
