  62
        -98.94046859
 C         -1.9942651241       -1.2047624747        0.5352094320
 C         -1.9625868387        0.1200117166        1.0461307004
 C         -3.1025825429        0.9788736481        0.7117946408
 C         -4.1195210211        0.4790679185       -0.0127920424
 C         -5.3783428692        1.2079607730       -0.3970250187
 C         -5.2422034530        2.0673397654       -1.6611661760
 C         -4.4157072600        3.3426758233       -1.4920248382
 H         -4.5801811181        3.9519352591       -2.3830040936
 H         -4.7915249794        3.9072721360       -0.6381139910
 C         -2.9083262821        3.1014547665       -1.3304752345
 H         -2.3576840315        3.7891531380       -1.9765378983
 H         -2.6634219081        2.0895260398       -1.6624900609
 C         -2.3816982722        3.2971023633        0.0912766552
 H         -1.3129290140        3.0682366395        0.0871956788
 H         -2.5006307251        4.3424460630        0.3845802950
 C         -3.0604518597        2.4128969839        1.1462377015
 H         -2.4768671809        2.4646840891        2.0686264440
 H         -4.0668921111        2.7782713704        1.3493860986
 H         -6.2500412341        2.3509554505       -1.9731097149
 H         -4.8090931039        1.4548170070       -2.4555539926
 H         -6.1361697847        0.4432514635       -0.5809237631
 H         -5.7085672397        1.8315587132        0.4342973163
 O         -4.1218641650       -0.7969376575       -0.4747842584
 C         -3.0512465964       -1.6560941785       -0.2560689330
 O         -3.1882159115       -2.7613271788       -0.8164432997
 H          1.8178947487       -1.4599646681        1.1718307619
 C          1.5655383774       -1.6501479571        0.1372714983
 C          0.2615928865       -1.9866967372       -0.1979864652
 C         -0.0451524966       -2.2160050053       -1.5350537869
 C          0.9263977042       -2.0909577300       -2.5115397178
 C          2.2233389641       -1.7437644494       -2.1752267611
 C          2.5433125990       -1.5256407007       -0.8427975195
 N          3.8712732486       -1.1723764524       -0.5149242790
 S          4.3735765847        0.3762060357       -0.9186866426
 O          3.8535145447        0.7034023183       -2.2208242059
 O          5.8109349512        0.3856067113       -0.7741732094
 C          3.6498384798        1.4192516638        0.3356593013
 C          2.2790857387        1.5895554817        0.3464415394
 C          1.7021264913        2.3114236692        1.3791423779
 C          2.5037386280        2.8640777362        2.3665122412
 C          3.8801467866        2.6980591610        2.3331698494
 C          4.4604526092        1.9574218818        1.3160176485
 H          5.5233023704        1.7861160221        1.2587834577
 H          4.4993010846        3.1317906562        3.1020285098
 H          2.0476015999        3.4229701751        3.1684259149
 H          0.6284157418        2.4011533530        1.4257325239
 H          1.6795046424        1.1525637011       -0.4368596389
 H          4.1115638426       -1.3570637502        0.4493969603
 H          2.9866903784       -1.6236296964       -2.9262391409
 H          0.6712458145       -2.2658262632       -3.5459824831
 H         -1.0553219312       -2.4876343203       -1.8021824987
 C         -0.7996950503       -2.0804165679        0.8735157610
 H         -0.3797745045       -1.6503096669        1.7932573852
 C         -1.1487801186       -3.5309550271        1.1411763425
 C         -0.2351117152       -4.3536543067        1.9972209821
 C         -1.5796009977       -3.9413921632        2.5157715143
 H         -2.3522512732       -4.6893930735        2.6095457452
 H         -1.6201308764       -3.1756480092        3.2767786990
 H         -0.0797028569       -5.3887391544        1.7349215190
 H          0.6366122676       -3.8704235382        2.4117406480
 H         -1.6295628285       -4.0188997702        0.3037929431
 O         -1.0235392959        0.5605735279        1.7595343327
