  62
        -98.94526410
 C         -1.6040701535       -0.1647148406       -0.6215331856
 C         -2.8776833698       -0.6326204097       -1.0303538076
 C         -3.9292502288       -0.6139220150       -0.0084489309
 C         -3.6365394188       -0.2099766108        1.2410153029
 C         -4.5903630519       -0.1697401462        2.4041902949
 C         -5.4573368354        1.0957118581        2.4595266231
 C         -6.5633094827        1.1737990428        1.4062596598
 H         -7.1528865072        0.2568404976        1.4320504329
 H         -7.2236464104        1.9935823309        1.6959690124
 C         -6.0606457688        1.4258987975       -0.0220686512
 H         -5.0347042028        1.7991596919        0.0138857719
 H         -6.6682350549        2.2037081554       -0.4899341030
 C         -6.1094101185        0.2016262558       -0.9361298408
 H         -7.1475262561       -0.1028519261       -1.0863156238
 H         -5.6967823552        0.4830705721       -1.9081772173
 C         -5.3173534724       -1.0054834941       -0.4169513008
 H         -5.8428048977       -1.4700172267        0.4172439883
 H         -5.2319515265       -1.7343702733       -1.2266289192
 H         -4.8065544069        1.9686238907        2.3708483345
 H         -5.9227412903        1.1276589737        3.4474048167
 H         -5.2319384159       -1.0512618149        2.3822884096
 H         -3.9783335940       -0.2082206876        3.3080859204
 O         -2.3932338957        0.2019850962        1.6039542909
 C         -1.3511579385        0.2502001973        0.6865122611
 O         -0.2824396559        0.6804280450        1.1589200056
 H          2.1063862271        0.0053530530       -0.6941460474
 C          1.7639388338       -1.0096184686       -0.7835542887
 C          0.4909742561       -1.2717507710       -1.2618696510
 C          0.0792362182       -2.5981508418       -1.3741657299
 C          0.9234408995       -3.6304422248       -1.0155738791
 C          2.1892603601       -3.3620683126       -0.5214142543
 C          2.6072655598       -2.0438498946       -0.3991993592
 N          3.8902981750       -1.7263804174        0.0833525703
 S          4.0022606575       -0.6509872882        1.3744834106
 O          5.3268599102       -0.8876707519        1.9132831765
 O          2.9072626533       -0.8263392691        2.2991125634
 C          3.9747261750        0.9623689345        0.6249167018
 C          2.9203785308        1.8215631598        0.8642871745
 C          2.9318988723        3.0700269711        0.2604870325
 C          3.9861043572        3.4333628656       -0.5635669356
 C          5.0377132415        2.5576681518       -0.7897596943
 C          5.0356006179        1.3094651812       -0.1888703840
 H          5.8341818009        0.6005273209       -0.3303947336
 H          5.8545102434        2.8435726045       -1.4326147108
 H          3.9850259835        4.4047243861       -1.0329735819
 H          2.1100825603        3.7472727673        0.4329011785
 H          2.0996627792        1.4921532554        1.4835637889
 H          4.4719301689       -2.5338186363        0.2614040632
 H          2.8466770861       -4.1678221497       -0.2304801201
 H          0.5932392812       -4.6539357169       -1.1125401476
 H         -0.9147181229       -2.8055478604       -1.7460579517
 C         -0.4753228474       -0.1757093068       -1.6397506465
 H         -0.9488955574       -0.4584226603       -2.5908049730
 C          0.1689222214        1.1847321367       -1.7948674392
 C          1.0429281600        1.4594789824       -2.9810004459
 C         -0.3043219396        2.1069792875       -2.8762433265
 H         -0.3549179414        3.1643106090       -2.6645154218
 H         -1.0931091177        1.7541834292       -3.5245887922
 H          1.1683617634        0.6648334317       -3.7006198564
 H          1.9217043674        2.0702915690       -2.8398395579
 H          0.4467564389        1.6325372116       -0.8488115353
 O         -3.1219886738       -1.0504938998       -2.1938011196
