  62
        -98.93833848
 C          1.0969697399        1.4165552598       -0.2928707894
 C          2.1754084695        1.4421826397        0.6307515610
 C          3.3189088097        0.5697160899        0.3338706912
 C          3.2767597502       -0.2119175900       -0.7608304489
 C          4.4142768604       -1.0650796198       -1.2472029186
 C          4.4017382003       -2.4891198899       -0.6757434388
 C          4.1564145398       -2.5511023801        0.8301598411
 H          3.1615224997       -2.1579893202        1.0451811208
 H          4.1579511798       -3.6040185802        1.1198608710
 C          5.1890128795       -1.7882454301        1.6703699116
 H          6.0882615397       -1.6079243100        1.0800035219
 H          5.4787745792       -2.4102589502        2.5199697516
 C          4.6855339692       -0.4609014703        2.2400965016
 H          3.7293626990       -0.6159206704        2.7462801212
 H          5.4011946989       -0.1235845903        2.9947586319
 C          4.5222935194        0.6797428899        1.2279429917
 H          4.3881319191        1.6078951798        1.7915089717
 H          5.4342796796        0.7716519500        0.6331489020
 H          5.3595650904       -2.9585755998       -0.9080259385
 H          3.6212869705       -3.0637647199       -1.1784759191
 H          4.3479650608       -1.1212315097       -2.3352674086
 H          5.3487094603       -0.5729989098       -0.9799252382
 O          2.1870040104       -0.2878584800       -1.5634094493
 C          1.0803892003        0.5286204499       -1.3702103195
 O          0.1859170706        0.3595850999       -2.2196206899
 H         -1.7063277198        0.6063179296       -1.0596453805
 C         -2.0736234401        1.1090323795       -0.1785541305
 C         -1.2815196504        2.0604081895        0.4524319099
 C         -1.7752167509        2.6882343693        1.5911883298
 C         -3.0391747310        2.3985047891        2.0732166893
 C         -3.8346653407        1.4712441691        1.4254510689
 C         -3.3423889403        0.8204393593        0.3023640590
 N         -4.1137629700       -0.1689640607       -0.3702376614
 S         -3.8611835601       -1.7111792607        0.2474162485
 O         -4.7668058197       -2.5791070107       -0.4713639919
 O         -4.0203789705       -1.7080358709        1.6885297885
 C         -2.1767535699       -2.0858868205       -0.1590529310
 C         -1.8901898094       -2.6745834804       -1.3733464509
 C         -0.5737437193       -2.9869332302       -1.6679057105
 C          0.4243088304       -2.6998550802       -0.7509513102
 C          0.1207305499       -2.0917227004        0.4565138998
 C         -1.1933513902       -1.7827518206        0.7606759494
 H         -1.4698865406       -1.3178676507        1.6937875094
 H          0.9014339197       -1.8469964104        1.1606847401
 H          1.4491013905       -2.9408173201       -0.9828669198
 H         -0.3260960589       -3.4458836301       -2.6114530505
 H         -2.6989847192       -2.8826666303       -2.0546214612
 H         -5.1074036300        0.0215259992       -0.3376511817
 H         -4.8242879808        1.2379141090        1.7894130986
 H         -3.4086483014        2.9005520290        2.9544753893
 H         -1.1585014411        3.4141848093        2.1011110501
 C          0.0431490997        2.4965268896       -0.1241402996
 H          0.4893784094        3.2031222196        0.5893253006
 C         -0.2120867999        3.2366314398       -1.4271978596
 C         -0.7048285700        4.6502311797       -1.3833840996
 C          0.6977721301        4.3581007999       -1.8243197492
 H          0.9486646005        4.4731703701       -2.8680865591
 H          1.5064575499        4.6065651199       -1.1522254389
 H         -1.4214342698        4.9684323598       -2.1247874098
 H         -0.8464786204        5.1021635196       -0.4134043896
 H         -0.5869136496        2.5949568099       -2.2141221398
 O          2.2006323291        2.2038775296        1.6352527411
