  62
        -98.94285320
 C          2.0931416368        1.5117714556        0.1166293578
 C          1.7147688562        0.3725151419       -0.6379269594
 C          2.7615784174       -0.6480493489       -0.8202927625
 C          3.9837024136       -0.4511566568       -0.2960027544
 C          5.1197086508       -1.4290292698       -0.3680932141
 C          5.1207208645       -2.3670706579        0.8471612099
 C          3.7604902701       -3.0008763676        1.1392096706
 H          3.8899719609       -3.6658012317        1.9958937327
 H          3.0600286047       -2.2193127223        1.4426789199
 C          3.1627108984       -3.7886420529       -0.0346654136
 H          3.9450487890       -4.0277441881       -0.7560628655
 H          2.7716013446       -4.7352758468        0.3437703070
 C          2.0088388618       -3.0837180984       -0.7503687609
 H          1.5287417368       -3.8114572739       -1.4099436694
 H          1.2661922379       -2.7586659653       -0.0175206624
 C          2.3961036510       -1.8736740818       -1.6096191342
 H          3.2035912685       -2.1478201774       -2.2917370480
 H          1.5231023488       -1.5932007690       -2.2061229328
 H          5.4279983477       -1.7947640649        1.7256877053
 H          5.8613002514       -3.1508591066        0.6773392044
 H          5.0393230529       -2.0067537092       -1.2868372609
 H          6.0559015756       -0.8681725856       -0.3837409988
 O          4.3114172474        0.6577288550        0.4154298994
 C          3.3741787928        1.6469052192        0.6600543350
 O          3.7963246272        2.5851608639        1.3654829076
 H         -1.2986725552        2.4766724627       -0.8722080282
 C         -1.3305837054        2.0418903054        0.1143842119
 C         -0.1923060462        2.0416589384        0.9033448197
 C         -0.2482785816        1.4355445936        2.1550554310
 C         -1.4185279581        0.8567138043        2.6085551449
 C         -2.5553897005        0.8613337422        1.8194307509
 C         -2.5030007602        1.4467278395        0.5615237683
 N         -3.6426383293        1.4369944971       -0.2583187224
 S         -4.5963700763        0.0649056564       -0.2949746833
 O         -5.2561571656        0.1039962007       -1.5818422867
 O         -5.4706514003        0.0578357660        0.8530866115
 C         -3.4854262782       -1.3285382041       -0.2114057665
 C         -3.6315736533       -2.2562686721        0.8000637663
 C         -2.7667930552       -3.3374852740        0.8482629227
 C         -1.7767302765       -3.4718025826       -0.1126621251
 C         -1.6465041846       -2.5334574461       -1.1245014620
 C         -2.5062166744       -1.4493688265       -1.1765466021
 H         -2.4153515300       -0.7037843793       -1.9493389709
 H         -0.8719161810       -2.6307710781       -1.8672435488
 H         -1.1013583114       -4.3122053151       -0.0738682662
 H         -2.8660603519       -4.0692975477        1.6339071744
 H         -4.4157336662       -2.1132214757        1.5260256257
 H         -3.4805687693        1.7943283979       -1.1882043295
 H         -3.4786860382        0.4222543079        2.1606247942
 H         -1.4480004330        0.3953660549        3.5840433562
 H          0.6436742870        1.4195808538        2.7669610493
 C          1.1142127790        2.6307062917        0.4345913329
 H          1.5656097911        3.1690433683        1.2836386552
 C          0.9430570282        3.6523487518       -0.6800199760
 C          2.1145463049        4.0690286682       -1.5169351631
 C          0.9932290112        3.2899323992       -2.1326693353
 H          0.3270696356        3.8041957362       -2.8106499021
 H          1.1643954794        2.2566801310       -2.3893457724
 H          2.2200421132        5.1128756604       -1.7715100974
 H          3.0544379981        3.5655230802       -1.3428856677
 H          0.2497597560        4.4397129565       -0.3987308153
 O          0.5772906127        0.2008012274       -1.1443176275
