  62
        -98.93913671
 C         -2.3619277017       -1.2744244508       -0.0204661834
 C         -3.1075916417       -0.5020240772        0.8970754266
 C         -3.8002114520        0.6872642836        0.3641301369
 C         -3.6728911016        0.9752617941       -0.9447840672
 C         -4.2357876642        2.1537143831       -1.6931279395
 C         -3.4442985855        3.4465842291       -1.4328129290
 C         -3.0525520867        3.6804786948        0.0243517850
 H         -2.4667638895        2.8291347591        0.3780060273
 H         -2.3957928419        4.5542971433        0.0552813252
 C         -4.2158479738        3.9340224824        0.9806930848
 H         -4.7577262235        4.8240540013        0.6532735418
 H         -3.7868220659        4.1492123967        1.9627872682
 C         -5.2172647936        2.7881916530        1.1377833857
 H         -5.8805596089        2.7304337000        0.2792261258
 H         -5.8461471208        3.0235435961        2.0013641859
 C         -4.5927750992        1.4244407662        1.4171066449
 H         -3.9302356888        1.5066997042        2.2864200168
 H         -5.3882236574        0.7351799186        1.7256662607
 H         -4.0323032630        4.2917838660       -1.7941276130
 H         -2.5221990198        3.4009952357       -2.0182239716
 H         -5.2859353013        2.2838214045       -1.4495473082
 H         -4.1664939303        1.9132902589       -2.7561944499
 O         -2.9283675513        0.2085761046       -1.7919824436
 C         -2.2498705470       -0.9177867970       -1.3640036739
 O         -1.6047664157       -1.5020482470       -2.2545321513
 O         -3.1836974144       -0.7812514518        2.1256614628
 C         -1.6026361927       -2.4898030086        0.4822035621
 C         -0.1235352816       -2.2566401418        0.2934869054
 C          0.7235686333       -3.1400687004       -0.3607395425
 C          2.0623998839       -2.8294342982       -0.5304625979
 C          2.5851572524       -1.6433711311       -0.0494926259
 C          1.7480071891       -0.7563565963        0.6153258709
 C          0.4104376188       -1.0716099783        0.7865779508
 H         -0.2424183583       -0.3756936259        1.3003982412
 N          2.2713087795        0.4530515629        1.1155287220
 S          3.0042607945        1.4761879279       -0.0016233715
 O          2.8952035233        2.8006512709        0.5716675436
 O          2.4520909012        1.3009546658       -1.3254444670
 C          4.7108450690        0.9710906770        0.0269701533
 C          5.3274207477        0.5601306696       -1.1383122508
 C          6.6582926740        0.1744859609       -1.0912323042
 C          7.3441257539        0.2068999587        0.1133105356
 C          6.7103457150        0.6243555016        1.2744290215
 C          5.3807862028        1.0125028069        1.2342153614
 H          4.8513762338        1.3471934173        2.1105736477
 H          7.2471079531        0.6482100863        2.2090162700
 H          8.3790239607       -0.0949182980        0.1469869611
 H          7.1523639911       -0.1501617810       -1.9928513959
 H          4.7506722348        0.5451824646       -2.0494869036
 H          1.6021758041        0.9751715160        1.6641606218
 H          3.6250024584       -1.3958089938       -0.1876565513
 H          2.7076828100       -3.5215716412       -1.0494855227
 H          0.3336879829       -4.0653633691       -0.7513544606
 H         -1.8075580709       -2.5362123852        1.5621345606
 C         -2.1143287579       -3.7566926113       -0.1676590118
 C         -1.9693853945       -5.0724933065        0.5351239436
 C         -3.3187551824       -4.4328125205        0.4132600933
 H         -4.0400519762       -4.8687470115       -0.2614488106
 H         -3.7587676073       -3.9904476162        1.2951878434
 H         -1.7659171407       -5.9526413445       -0.0556860358
 H         -1.4939002442       -5.0709462068        1.5041391364
 H         -2.0243259041       -3.7368555286       -1.2477692838
