  62
        -98.93777243
 C         -1.9898488404       -1.6508555491        0.0723779602
 C         -1.8266968881       -0.4658469255       -0.6840101031
 C         -2.9676012861        0.4622371155       -0.6691651177
 C         -4.0813238880        0.1410235237        0.0131762501
 C         -5.3546145396        0.9417312443        0.0857237708
 C         -5.2594078161        2.3077538180        0.7924333635
 C         -5.0105664001        3.4910185367       -0.1508645229
 H         -5.3681141398        3.2272017443       -1.1470371197
 H         -5.6132649771        4.3381621845        0.1830920650
 C         -3.5621243865        3.9805329360       -0.2393589683
 H         -3.4865247767        4.6393907302       -1.1071576696
 H         -3.3338905597        4.5768772373        0.6468960303
 C         -2.4917176515        2.8937373833       -0.3470890970
 H         -2.3386252214        2.4281734049        0.6293105791
 H         -1.5479653818        3.3741479886       -0.6090149611
 C         -2.8012141770        1.7808608832       -1.3669168534
 H         -1.9642294085        1.6617987227       -2.0577250529
 H         -3.6910566960        2.0243648780       -1.9456246561
 H         -4.4902313181        2.2656015122        1.5632097334
 H         -6.2133915488        2.4694575502        1.2969405071
 H         -5.7381162126        1.0837166362       -0.9272492822
 H         -6.0641906846        0.3105049572        0.6246140546
 O         -4.2003093705       -1.0194527911        0.7156752058
 C         -3.1590027112       -1.9290091651        0.7801328661
 O         -3.3921578749       -2.9315507713        1.4857703273
 O         -0.7920509929       -0.1970878220       -1.3466562176
 C         -0.8649612239       -2.6690114812        0.1423649142
 C          0.3741637051       -2.0014201299        0.6859269326
 C          0.3109098388       -1.4004125739        1.9410287215
 C          1.4089877956       -0.7524404201        2.4723312138
 C          2.5940254912       -0.6791902960        1.7600000465
 C          2.6640971245       -1.2678667664        0.5053271018
 C          1.5630533790       -1.9337066556       -0.0203106267
 H          1.6383853152       -2.3854966546       -0.9966519637
 N          3.8531391060       -1.1801522002       -0.2356811954
 S          4.6892417420        0.2672364016       -0.2297044893
 O          5.3992214050        0.2952177586       -1.4899409166
 O          5.5156739703        0.3424727325        0.9504039491
 C          3.4596919148        1.5611156753       -0.1784386444
 C          3.6067176064        2.5909292546        0.7291950288
 C          2.6578314517        3.5997837407        0.7597195648
 C          1.5790216420        3.5587983309       -0.1099885868
 C          1.4456050521        2.5180056243       -1.0154526021
 C          2.3949082085        1.5104621781       -1.0552850903
 H          2.2955828568        0.6918794771       -1.7490878226
 H          0.6007457721        2.4665186184       -1.6830044511
 H          0.8377417396        4.3422862619       -0.0804036921
 H          2.7590182118        4.4105726041        1.4631957377
 H          4.4548707607        2.5775808392        1.3946175580
 H          3.7889200940       -1.5637436195       -1.1671268501
 H          3.4611269023       -0.1785088638        2.1595047531
 H          1.3440050049       -0.2954090902        3.4481094850
 H         -0.6187704906       -1.4470130004        2.4922729895
 H         -1.1882184992       -3.4308514303        0.8657249229
 C         -0.6718645387       -3.3302111675       -1.2061128560
 C         -0.0333055472       -4.6830241935       -1.2942535837
 C         -1.5017364785       -4.5286004107       -1.5508109861
 H         -1.8630893608       -4.6318748782       -2.5630583373
 H         -2.1952291751       -4.8842965705       -0.8026875580
 H          0.6121677878       -4.8980659108       -2.1326906847
 H          0.2736304933       -5.1513120498       -0.3712915787
 H         -0.4767007820       -2.6178510194       -1.9994956903
