  62
        -98.93473029
 C          2.3593760042        1.2841899751        0.1425926212
 C          2.7911656854        0.3537844471        1.1218829285
 C          3.4625719057       -0.8637168299        0.6411371521
 C          3.6250730249       -1.0430388544       -0.6804530374
 C          4.3126294997       -2.1734899413       -1.4052403325
 C          4.0787024748       -3.5979902797       -0.8880814011
 C          2.6702947740       -3.8644440959       -0.3366578093
 H          2.0005197316       -3.0397714912       -0.5908474513
 H          2.2673282840       -4.7620431614       -0.8100790268
 C          2.6536217658       -4.0843631691        1.1778222725
 H          3.4920154676       -4.7301275716        1.4485502622
 H          1.7334495590       -4.6103935646        1.4430732103
 C          2.7064533682       -2.8124583049        2.0225336212
 H          1.7705522527       -2.2575891139        1.9087234886
 H          2.7797901126       -3.1077014786        3.0719936444
 C          3.8625201425       -1.8514750663        1.6990180097
 H          4.0712020560       -1.2620569081        2.5959176474
 H          4.7624924109       -2.3955347237        1.4232490411
 H          4.8121969563       -3.8321830676       -0.1179218832
 H          4.2750313929       -4.2709913858       -1.7246074789
 H          3.9654223635       -2.0993611940       -2.4389412099
 H          5.3873045932       -1.9675924945       -1.4115330788
 O          3.1859942433       -0.1293932905       -1.5906821401
 C          2.5278452856        1.0346238130       -1.2179549252
 O          2.1666637112        1.7310600858       -2.1871940919
 H          0.0324808926        1.6109849096       -1.2956222791
 C         -0.5060234027        1.7663469317       -0.3714134749
 C          0.1690299156        2.2609334947        0.7368531934
 C         -0.5409949633        2.4460966230        1.9166634875
 C         -1.8897386217        2.1398915836        1.9840395190
 C         -2.5533662730        1.6323678708        0.8807406485
 C         -1.8506078067        1.4441595502       -0.3017039603
 N         -2.5127539728        0.8687589140       -1.4191023459
 S         -2.5791387802       -0.8152063147       -1.2981275852
 O         -1.3847621943       -1.3447132504       -0.6755728392
 O         -2.8733001347       -1.2947256286       -2.6309275683
 C         -3.9868527850       -1.0768579874       -0.2427515520
 C         -3.7968237939       -1.4867544210        1.0620701828
 C         -4.9048912617       -1.6566424391        1.8776418688
 C         -6.1747617945       -1.4135893352        1.3764055099
 C         -6.3482341458       -1.0040774707        0.0624387355
 C         -5.2449783054       -0.8321772303       -0.7581844054
 H         -5.3307451204       -0.5211680978       -1.7859779809
 H         -7.3373369231       -0.8174132710       -0.3234932108
 H         -7.0345432790       -1.5451628747        2.0141969655
 H         -4.7714968694       -1.9746445177        2.8991101701
 H         -2.7900396940       -1.6591047352        1.4081433207
 H         -2.0474741533        1.0940894525       -2.2893478609
 H         -3.6010168403        1.3833004471        0.9256890095
 H         -2.4273216300        2.2884249986        2.9077594539
 H         -0.0224534159        2.8125813735        2.7904467194
 C          1.6503411562        2.5264029761        0.6559928869
 H          2.0201820836        2.6536434355        1.6857212189
 C          1.9997778603        3.7907885733       -0.1151031681
 C          1.0220739503        4.5414772024       -0.9643089656
 C          1.4646344125        5.1143350227        0.3464577019
 H          2.1235429246        5.9690380731        0.3448517601
 H          0.7533927039        5.1028530963        1.1585528127
 H          1.3913574105        4.9799715646       -1.8788512142
 H          0.0142431349        4.1647378427       -1.0418992427
 H          3.0253371803        3.7764677092       -0.4695550667
 O          2.6368549871        0.5461823245        2.3573319553
