  62
        -98.94042296
 C          2.0650486057        1.0240278718        0.5328534872
 C          2.7682546631        0.0494404310        1.2871049413
 C          4.1848207965       -0.1334016461        0.9576347599
 C          4.7466291438        0.6247825654       -0.0010729090
 C          6.1862884576        0.5812339224       -0.4361654376
 C          6.4931753008       -0.5119639807       -1.4687465153
 C          6.4956562741       -1.9401716535       -0.9222231585
 H          6.9349487248       -2.5772144243       -1.6925192838
 H          7.1450623712       -1.9925273212       -0.0477604460
 C          5.1049923878       -2.4846713247       -0.5666307476
 H          4.3386511603       -1.8699162831       -1.0446952943
 H          4.9964525206       -3.4958074002       -0.9656042741
 C          4.8155544698       -2.5569294386        0.9328351438
 H          3.7929452311       -2.9196025335        1.0663519615
 H          5.4914260370       -3.2752432340        1.4023839241
 C          4.9419770757       -1.2152333938        1.6663735137
 H          5.9916171871       -0.9407962492        1.7703041493
 H          4.5080795201       -1.3270489148        2.6631129538
 H          5.7700897643       -0.4355877994       -2.2840636357
 H          7.4827377311       -0.3021186722       -1.8813122846
 H          6.8286650824        0.4510935018        0.4352740418
 H          6.4041934894        1.5516154643       -0.8874733476
 O          4.0465042320        1.5608326007       -0.6908560872
 C          2.6875125400        1.7669693606       -0.4714812460
 O          2.1888328175        2.6249264112       -1.2211508075
 O          2.2322384666       -0.6294805569        2.2044492945
 C          0.5944484696        1.1984050333        0.8655693293
 C         -0.2538084432        0.2699406717        0.0350588453
 C         -0.1246412932        0.2211413279       -1.3494000696
 C         -0.9180386221       -0.6282107911       -2.0991294192
 C         -1.8583123034       -1.4389939974       -1.4871877958
 C         -1.9988086917       -1.3934680694       -0.1070044158
 C         -1.1978196785       -0.5432588440        0.6445733015
 H         -1.2996119574       -0.5254563476        1.7212428161
 N         -2.9823173535       -2.1918133258        0.5118426310
 S         -4.5608116845       -1.9030063729        0.0174534081
 O         -5.3975323406       -2.4177602950        1.0769696579
 O         -4.7614808116       -2.4737670392       -1.2894977924
 C         -4.6598423304       -0.1244452279       -0.0608341672
 C         -4.8420828894        0.5725198378        1.1173782234
 C         -4.8178932979        1.9573359516        1.0879152279
 C         -4.5977556277        2.6181213799       -0.1111178335
 C         -4.4187760543        1.9039449294       -1.2852739668
 C         -4.4495217352        0.5186830455       -1.2639413891
 H         -4.3184514402       -0.0713193759       -2.1558288844
 H         -4.2481258504        2.4210379354       -2.2157380824
 H         -4.5620746333        3.6955074271       -0.1296994925
 H         -4.9604658944        2.5165035329        1.9986870830
 H         -5.0108852321        0.0219212867        2.0292118743
 H         -2.9301072414       -2.1791252677        1.5207475315
 H         -2.4897518550       -2.1017674018       -2.0567017409
 H         -0.8042370400       -0.6587831521       -3.1722598908
 H          0.6000082796        0.8618012795       -1.8291480927
 H          0.5088976315        0.8705504995        1.9138933985
 C          0.1171491242        2.6429550997        0.8010855053
 C         -0.8763113809        3.1436113333       -0.2002554667
 C         -1.2786595324        2.9838718349        1.2328536759
 H         -1.4332032465        3.8674264632        1.8328032901
 H         -1.9374785778        2.1627057235        1.4732533705
 H         -0.7261349854        4.1369781578       -0.5936365402
 H         -1.2748062424        2.4461633271       -0.9199731645
 H          0.8987592509        3.3386531950        1.0874869555
