  62
        -98.94452288
 C         -1.9750815593        1.2995624480       -0.3922817413
 C         -2.7384511597        0.8878094517        0.7271175528
 C         -3.9570404182        0.1222703318        0.4231027798
 C         -4.2615813163       -0.1563896083       -0.8572770916
 C         -5.4439838063       -0.9667345670       -1.3018857765
 C         -5.0887803687       -2.4557815563       -1.4158298204
 C         -4.3687162957       -3.0150247878       -0.1885999486
 H         -3.3877574390       -2.5413123018       -0.1019781243
 H         -4.1953864804       -4.0782181386       -0.3693752006
 C         -5.1331248038       -2.8387852561        1.1309211229
 H         -5.0872982375       -3.7761455333        1.6893188581
 H         -6.1847529137       -2.6353254585        0.9254747353
 C         -4.5749524240       -1.7474884621        2.0463036281
 H         -3.4999074128       -1.8946334153        2.1793202712
 H         -5.0433339434       -1.8558641190        3.0281712396
 C         -4.8104745024       -0.3039949781        1.5842157432
 H         -4.5393994483        0.3567205921        2.4128315661
 H         -5.8689170243       -0.1577288454        1.3593514372
 H         -4.4405929743       -2.5925196201       -2.2846657666
 H         -6.0085117377       -3.0179817815       -1.5872694133
 H         -5.7621392952       -0.6027366742       -2.2803117845
 H         -6.2577811566       -0.8302990357       -0.5924304289
 O         -3.4881137701        0.2320077150       -1.9035995659
 C         -2.3250557998        0.9550106052       -1.6977878650
 O         -1.6947165165        1.2231875492       -2.7420016516
 O         -2.4279119263        1.1467767331        1.9180922140
 C         -0.7012785402        2.1059617883       -0.1994920959
 C          0.3204772231        1.2573706138        0.5182004325
 C          0.8946325370        1.5966814356        1.7349746657
 C          1.8133658983        0.7513070891        2.3351311376
 C          2.1890742818       -0.4339589004        1.7317031224
 C          1.6350547091       -0.7724995347        0.5024650498
 C          0.7105017245        0.0707050905       -0.0927329766
 H          0.2737540497       -0.1944415809       -1.0481194161
 N          2.0374077892       -1.9593137681       -0.1345040310
 S          3.6808787123       -2.2780293421       -0.1938283558
 O          3.8735838083       -3.0611785986       -1.3943141479
 O          4.0958965951       -2.9043162101        1.0367432688
 C          4.4638343598       -0.6817085737       -0.3499265891
 C          4.1398888990        0.0995726014       -1.4415617892
 C          4.7102530947        1.3565137268       -1.5587577709
 C          5.5906871605        1.8086242427       -0.5875414531
 C          5.9110256349        1.0096212392        0.4987126174
 C          5.3416506349       -0.2476639834        0.6223314279
 H          5.5590733232       -0.8998556513        1.4523867468
 H          6.5975491735        1.3628778736        1.2510158800
 H          6.0290485771        2.7896758532       -0.6801457518
 H          4.4617739956        1.9786230967       -2.4037330755
 H          3.4543671327       -0.2804514083       -2.1824871864
 H          1.6037203974       -2.1085056413       -1.0335442980
 H          2.8943731929       -1.1069538530        2.1917845325
 H          2.2419949010        1.0200186138        3.2883177776
 H          0.6140051801        2.5155904010        2.2214857074
 H         -0.3183014201        2.3054147297       -1.2106028154
 C         -0.9920063615        3.4271260608        0.4784426247
 C         -0.0445876618        4.5748232982        0.3048825924
 C         -1.3851866826        4.6017850999       -0.3640391999
 H         -2.1387535948        5.2768625625        0.0129435144
 H         -1.4289831814        4.4550370389       -1.4336973948
 H          0.1231375105        5.2367186193        1.1407267229
 H          0.8260786545        4.4135115832       -0.3123800929
 H         -1.4891622931        3.3105349367        1.4337279732
