  62
        -98.95113556
 C         -1.9898401362        0.9107579478       -0.1152455269
 C         -1.5287233314        1.8438395945        0.8454416107
 C         -0.4894427953        2.7775796154        0.3912228491
 C         -0.0706211178        2.7254507388       -0.8861303803
 C          1.0051730638        3.5894476944       -1.4762561133
 C          2.3847317745        2.9247938512       -1.3746890052
 C          2.7263030964        2.4050609098        0.0217289317
 H          2.0755616598        1.5639625358        0.2716767567
 H          3.7446696604        2.0105414195       -0.0175140379
 C          2.6275231291        3.4534323771        1.1383589234
 H          2.6532991943        4.4582329997        0.7137852329
 H          3.4986182429        3.3509835442        1.7888954473
 C          1.3913140070        3.3045451251        2.0280416522
 H          1.2995409516        2.2612945920        2.3443159275
 H          1.5425908401        3.9079420810        2.9276433616
 C          0.0616879243        3.7441853597        1.3999915929
 H         -0.6824855361        3.7995649443        2.2002047405
 H          0.1714330638        4.7399373538        0.9640757931
 H          3.1378587043        3.6516250676       -1.6846411628
 H          2.4188236683        2.0804398182       -2.0669063368
 H          0.7704085817        3.7548269108       -2.5292319983
 H          1.0140054234        4.5483502655       -0.9616564858
 O         -0.5687202924        1.8466604942       -1.7919254957
 C         -1.5054311745        0.8893631989       -1.4226371532
 O         -1.8164684948        0.1038921954       -2.3373836962
 H         -0.7211544848       -0.7899759863        1.5479739685
 C         -1.0771902763       -1.6203474412        0.9551277927
 C         -2.2722189463       -1.4974209454        0.2549794190
 C         -2.7266374723       -2.5842931341       -0.4793515520
 C         -1.9829863223       -3.7513398656       -0.5288590668
 C         -0.7728684641       -3.8528742586        0.1324720881
 C         -0.3140361001       -2.7743971268        0.8818950141
 N          0.9086403852       -2.8444026778        1.5744788249
 S          2.0307901101       -1.6096250965        1.4642101012
 O          3.1994696227       -2.1249091133        2.1428230193
 O          1.4774748246       -0.3864067477        1.9831064544
 C          2.3835815111       -1.4425939502       -0.2749898490
 C          1.4596454206       -0.8093888169       -1.0807592698
 C          1.7059486725       -0.7089444538       -2.4403298404
 C          2.8739206416       -1.2370969036       -2.9687318545
 C          3.7952263472       -1.8689596254       -2.1465194045
 C          3.5479969703       -1.9799299264       -0.7876036294
 H          4.2360827376       -2.4604702846       -0.1111056722
 H          4.7029106109       -2.2768585879       -2.5613999008
 H          3.0644646666       -1.1537310753       -4.0271236256
 H          0.9728574917       -0.2233800499       -3.0664240754
 H          0.5600406815       -0.4037667583       -0.6452030212
 H          1.3741790822       -3.7377572740        1.4995035951
 H         -0.1866388849       -4.7573665691        0.0743947833
 H         -2.3443587706       -4.5890096172       -1.1056083479
 H         -3.6557516680       -2.5153263906       -1.0202467484
 C         -2.9753052302       -0.1623409518        0.3182063335
 H         -3.1983622553        0.0568874582        1.3729001627
 C         -4.2597653786       -0.0993437113       -0.4778291315
 C         -5.5262828067       -0.6498926981        0.1043819122
 C         -5.3450441080        0.8313829278       -0.0298652846
 H         -5.9155901209        1.3568426501       -0.7808342583
 H         -5.1657566411        1.4098505121        0.8649046512
 H         -6.2264953565       -1.1410691111       -0.5540699199
 H         -5.4757882188       -1.0783866534        1.0940272605
 H         -4.0985146097       -0.1999737021       -1.5446717945
 O         -1.9693378129        1.8924231350        2.0259361576
