  62
        -98.94599459
 C         -1.9539548756       -0.4723659911        0.5119836433
 C         -1.7340571968        0.7126234539        1.2581108497
 C         -1.9732456794        1.9780475691        0.5559571328
 C         -2.3228457587        1.9611132591       -0.7426618912
 C         -2.6096487180        3.1639270258       -1.6000811590
 C         -1.3509065127        3.8121986920       -2.1923283874
 C         -0.5103674199        4.6174324676       -1.2008314901
 H         -1.1520491437        5.3196104736       -0.6666655084
 H          0.2008597336        5.2034021247       -1.7864421213
 C          0.2705955732        3.7591435723       -0.1959341072
 H          1.2958468709        4.1310114761       -0.1206468451
 H          0.3362130536        2.7346230029       -0.5730383442
 C         -0.3129555257        3.7518780183        1.2174177701
 H         -0.2640550427        4.7602752713        1.6349134468
 H          0.3054251025        3.1019658028        1.8405960945
 C         -1.7629450462        3.2585793685        1.3083750308
 H         -2.4426262588        4.0259260431        0.9375125248
 H         -1.9924159394        3.0660340136        2.3596254592
 H         -1.6726906404        4.4812907782       -2.9941109964
 H         -0.7318258479        3.0288529348       -2.6378278919
 H         -3.2381172150        2.8158524012       -2.4228054542
 H         -3.1670682191        3.9040442593       -1.0246776408
 O         -2.4786071517        0.8071278589       -1.4396950093
 C         -2.2695447593       -0.4317287798       -0.8480845933
 O         -2.4137549160       -1.3885299133       -1.6323180423
 H          0.6665283037       -0.9933902669        0.3631202460
 C          0.4536578532       -1.9719084298       -0.0363328754
 C         -0.7361156754       -2.5952080683        0.3186288552
 C         -1.0020456072       -3.8579299972       -0.1900576213
 C         -0.1097456550       -4.4530814223       -1.0663882346
 C          1.0392301720       -3.7986519675       -1.4698850262
 C          1.3186600866       -2.5363294933       -0.9553185052
 N          2.4685439765       -1.8335425842       -1.3380309522
 S          2.5437595718       -0.1624996076       -1.2841485413
 O          1.2663487809        0.4674050799       -1.5220288689
 O          3.5995149324        0.1687124614       -2.2187094358
 C          3.1269521879        0.1553965283        0.3683517024
 C          2.3250254907        0.7947150621        1.2908584013
 C          2.8068065839        0.9991826318        2.5744579616
 C          4.0792581025        0.5653420128        2.9111420923
 C          4.8777467448       -0.0692601535        1.9709445832
 C          4.3991922869       -0.2785433916        0.6882155802
 H          4.9878345871       -0.7607292412       -0.0742368380
 H          5.8680542985       -0.4030854733        2.2356044124
 H          4.4486919015        0.7243802158        3.9118660149
 H          2.1776421718        1.4875454162        3.3020030097
 H          1.3363129007        1.1176359388        1.0021572391
 H          2.9725448045       -2.2196837031       -2.1217488945
 H          1.7087716142       -4.2499370307       -2.1862416160
 H         -0.3283157735       -5.4323296531       -1.4651584390
 H         -1.9197896422       -4.3608605157        0.0670479048
 C         -1.6728995083       -1.8023851998        1.1945335282
 H         -1.1294198531       -1.5249347961        2.1137965006
 C         -2.9059532702       -2.5725575362        1.6373700918
 C         -4.1857018235       -1.8594309470        1.9539663246
 C         -4.1039173328       -2.7558761911        0.7567053669
 H         -4.6231245502       -3.7026523747        0.7916523209
 H         -4.0763049970       -2.3089189470       -0.2242426119
 H         -4.2152380576       -0.7917980744        1.7897353191
 H         -4.7603767641       -2.1875551593        2.8070605495
 H         -2.6492211474       -3.4053303981        2.2850666058
 O         -1.3525655571        0.7139981725        2.4598042743
