  62
        -98.94008013
 C         -2.0100062318       -0.3519990611       -0.5557158151
 C         -1.2260876051       -1.2531240872       -1.3151237744
 C         -0.7953985799       -2.4939552078       -0.6481281617
 C         -1.1424581551       -2.6953934866        0.6342972867
 C         -0.7787599927       -3.8602285570        1.5138137747
 C          0.4910716780       -3.5526178998        2.3264257311
 C          1.7969515822       -3.9321984309        1.6314637493
 H          2.6150104904       -3.5735410880        2.2605685656
 H          1.8752563676       -5.0202006610        1.5714037924
 C          1.9590445196       -3.3365996586        0.2311153908
 H          1.6073753750       -2.3035193438        0.2540643618
 H          3.0248533669       -3.3076307145       -0.0051648065
 C          1.2260686433       -4.1367363639       -0.8566416226
 H          0.9181825033       -5.0965243553       -0.4417886724
 H          1.9215506197       -4.3593075800       -1.6685406543
 C          0.0136395061       -3.4410165281       -1.4929829703
 H          0.3450571716       -2.8373870183       -2.3440860621
 H         -0.6593611332       -4.2042349888       -1.8988387335
 H          0.5009467531       -2.4809796611        2.5465651611
 H          0.4400008560       -4.0855695717        3.2784265641
 H         -1.6118135201       -3.9964253509        2.2068853606
 H         -0.6600354079       -4.7663416375        0.9262972396
 O         -1.8733219477       -1.7928526287        1.3404642303
 C         -2.2775283861       -0.5859491629        0.7950149447
 O         -2.8696344566        0.1548862432        1.6022253394
 O         -0.8808653680       -1.0228120202       -2.5071174562
 C         -2.3681485758        0.9822057882       -1.1946814601
 C         -1.8347516595        2.0686885848       -0.2958708485
 C         -2.6016974430        3.0555388162        0.3049856138
 C         -2.0188478984        3.9307479977        1.2069122779
 C         -0.6845559514        3.8178190883        1.5518517555
 C          0.0931451606        2.8361979069        0.9455766739
 C         -0.4771807375        2.0116467195       -0.0058420982
 H          0.1263893357        1.2563339117       -0.4835976489
 N          1.4454318729        2.6620418452        1.2723574463
 S          2.1480846670        1.1384574825        1.2166790982
 O          1.1932038417        0.0767120242        1.4262542737
 O          3.2330768631        1.2171146097        2.1735575294
 C          2.8478784492        1.0748820045       -0.4204261009
 C          2.3640730983        0.1991021380       -1.3702431943
 C          2.9327885432        0.1957961073       -2.6344659709
 C          3.9731652406        1.0634082786       -2.9262574478
 C          4.4534771221        1.9351498969       -1.9599106181
 C          3.8873565519        1.9429058513       -0.6960942293
 H          4.2354746371        2.5961287768        0.0864717146
 H          5.2642038923        2.6077704124       -2.1890230261
 H          4.4109738768        1.0581176996       -3.9119605354
 H          2.5479293843       -0.4809923580       -3.3806810719
 H          1.5482481965       -0.4630786961       -1.1236171195
 H          1.7656287739        3.1962011135        2.0664020488
 H         -0.2491662312        4.4711129217        2.2927904157
 H         -2.6233446877        4.6926361737        1.6758010563
 H         -3.6574786194        3.1182041128        0.0979083539
 H         -1.7842192075        0.9959112961       -2.1305908601
 C         -3.8229618633        1.1563722623       -1.5939975137
 C         -4.6706561605       -0.0309054449       -1.9385939315
 C         -4.9675324009        0.7700517503       -0.7080868333
 H         -5.8460499287        1.3990578687       -0.7095820930
 H         -4.7353190956        0.3461579359        0.2554748017
 H         -5.3444581444        0.0422546768       -2.7790349113
 H         -4.2290364880       -1.0092946573       -1.8136688639
 H         -3.9657007151        2.0409384493       -2.2076213569
