  62
        -98.94401335
 C         -2.0994804054       -1.3102893730        0.2437043250
 C         -2.2192343174       -0.5592051232       -0.9506222376
 C         -3.0653286320        0.6422931060       -0.8747828608
 C         -3.6643716654        0.9642128504        0.2855279007
 C         -4.4929103116        2.1943141931        0.5149130834
 C         -3.6273164369        3.3607735979        1.0125665280
 C         -2.3658711456        3.5891163216        0.1800385886
 H         -1.8411535888        4.4455552298        0.6090988355
 H         -1.7133324121        2.7189956648        0.2831008851
 C         -2.6249529166        3.8442917677       -1.3111786348
 H         -3.6677138382        4.1243026325       -1.4647064414
 H         -2.0117001937        4.6875863451       -1.6358891492
 C         -2.2795588085        2.6648307738       -2.2219981579
 H         -2.2999203891        3.0164676916       -3.2571070402
 H         -1.2607444622        2.3269734444       -2.0138467117
 C         -3.2190431799        1.4556279695       -2.1299541689
 H         -4.2530814691        1.7844496762       -2.2508920395
 H         -2.9749107338        0.7823715736       -2.9569802266
 H         -3.3257750202        3.1528004000        2.0416802103
 H         -4.2351267121        4.2671822190        1.0130022489
 H         -4.9927400738        2.4685067440       -0.4121036192
 H         -5.2472440587        1.9650379397        1.2692886912
 O         -3.5347017999        0.2174724927        1.4100923150
 C         -2.7581643309       -0.9269800282        1.4183297984
 O         -2.7349271669       -1.5170925472        2.5160241456
 H          0.3500934926       -1.4148515757       -1.4650723781
 C          0.8832308116       -1.6807515610       -0.5645367307
 C          0.1962901586       -2.2873699169        0.4772489231
 C          0.8920004353       -2.5979053380        1.6399870840
 C          2.2442835703       -2.3223505074        1.7479670520
 C          2.9275159249       -1.7231143845        0.7049510004
 C          2.2355499499       -1.3918705015       -0.4532270772
 N          2.9067461658       -0.7518702176       -1.5085715574
 S          3.9607828300        0.4868653989       -1.1257523177
 O          3.9489194164        1.3701374779       -2.2705330626
 O          5.2460987684       -0.0662964114       -0.7763764623
 C          3.2619773538        1.3044007408        0.3000845173
 C          4.0211101710        1.4415746978        1.4444402515
 C          3.4680267623        2.0731943921        2.5467538406
 C          2.1693394696        2.5531012027        2.4861672920
 C          1.4201053934        2.4104797726        1.3282690034
 C          1.9682526807        1.7810338577        0.2228157355
 H          1.4057018631        1.6567139142       -0.6895454731
 H          0.4092977973        2.7840277595        1.2845017386
 H          1.7346255909        3.0410141415        3.3442375034
 H          4.0485206924        2.1861406336        3.4480630713
 H          5.0252321712        1.0495778623        1.4485851862
 H          2.3037912062       -0.5031792680       -2.2792771228
 H          3.9823021925       -1.5095554230        0.7686029481
 H          2.7727355526       -2.5755657295        2.6541848188
 H          0.3620563233       -3.0496876282        2.4658269033
 C         -1.2787106494       -2.5877064168        0.3532107935
 H         -1.6015624373       -3.0627404564        1.2888433770
 C         -1.5407087837       -3.5547392383       -0.7859611425
 C         -1.2253011768       -5.0058659142       -0.5911757520
 C         -2.6517905067       -4.5508269126       -0.6592066321
 H         -3.2312302456       -4.7911438432       -1.5380268364
 H         -3.2290217584       -4.5422204770        0.2541923851
 H         -0.8219516689       -5.5616069856       -1.4237384903
 H         -0.8356643090       -5.3084315608        0.3690593818
 H         -1.3669576198       -3.1284381542       -1.7649726001
 O         -1.6580460680       -0.8502384514       -2.0420979764
