  62
        -98.93241574
 C         -2.6863069739       -0.2948667785        0.0850044232
 C         -2.3052225432       -1.1538694294       -0.9750247261
 C         -1.6220962702       -2.4126182028       -0.6269290114
 C         -1.4077516392       -2.6888397932        0.6722141076
 C         -0.6841966183       -3.8592984123        1.2856202428
 C          0.8389466881       -3.7357201132        1.1536340045
 C          1.3298113466       -3.4362094191       -0.2598952656
 H          2.4213722622       -3.3742496353       -0.2210682348
 H          0.9715677672       -2.4495532854       -0.5600178006
 C          0.9556419684       -4.4744539380       -1.3169853569
 H          1.2935022544       -5.4590752798       -0.9862382954
 H          1.5119765219       -4.2180812701       -2.2217684597
 C         -0.5285194142       -4.5620673941       -1.6908725312
 H         -1.0828766121       -5.1833005126       -0.9915719186
 H         -0.5892708226       -5.0600878032       -2.6627038939
 C         -1.2241116517       -3.2136963955       -1.8420995953
 H         -2.1495292334       -3.3542441540       -2.4133774555
 H         -0.6040822336       -2.5493949414       -2.4552825135
 H          1.2901750955       -4.6630803364        1.5134075761
 H          1.1726221114       -2.9176991617        1.7990137541
 H         -1.0305628064       -4.7940486867        0.8551320979
 H         -0.9419687330       -3.8612767199        2.3474857048
 O         -1.8321182237       -1.8555413189        1.6641826330
 C         -2.4244239048       -0.6286327398        1.4129311405
 O         -2.6723506532        0.0252426744        2.4450409916
 O         -2.5275348562       -0.8735903077       -2.1848966697
 C         -3.2272282061        1.0658568678       -0.3205949179
 C         -2.0523076782        1.9442248445       -0.6776449618
 C         -2.0534809923        2.7649602029       -1.7989226064
 C         -0.9261064671        3.4896308214       -2.1480990077
 C          0.2385192742        3.3840332911       -1.4066294127
 C          0.2433099011        2.5753349590       -0.2806823493
 C         -0.8990352958        1.8892887567        0.0917823207
 H         -0.8622696363        1.2583973603        0.9705941614
 N          1.4616367355        2.3500097088        0.4339069190
 S          1.8598400741        0.7047023664        0.4971684359
 O          1.2704509758        0.0393293698       -0.6373950198
 O          1.5681082161        0.1686096191        1.8116839629
 C          3.6265713090        0.7995994243        0.2760797484
 C          4.4750673174        0.6204949225        1.3502454145
 C          5.8417788961        0.7469856038        1.1537073237
 C          6.3325570683        1.0538128682       -0.1059024759
 C          5.4672013058        1.2317027374       -1.1754569299
 C          4.1009389737        1.1049251258       -0.9849672710
 H          3.3887212047        1.2273581198       -1.7846191545
 H          5.8519303015        1.4691487034       -2.1542054737
 H          7.3959282560        1.1542884236       -0.2557101415
 H          6.5163093158        0.6076326052        1.9831846458
 H          4.0484326673        0.3797848533        2.3107138692
 H          1.4345594730        2.7077747107        1.3791431791
 H          1.1378219206        3.9039616565       -1.6935940509
 H         -0.9453325786        4.1170359431       -3.0260280116
 H         -2.9367762011        2.8069605671       -2.4194865656
 H         -3.8002312011        0.8924932551       -1.2458242246
 C         -4.1637655406        1.7024035205        0.6925539911
 C         -3.7535052771        2.8424695575        1.5709832579
 C         -4.7165149391        3.0755692424        0.4481716995
 H         -5.7523319899        3.2622801422        0.6864810234
 H         -4.3543432995        3.6140717945       -0.4140650265
 H         -4.1168682920        2.8470809581        2.5869254692
 H         -2.7479295254        3.2215162003        1.4703618226
 H         -4.8362167551        0.9751559941        1.1343424488
