  62
        -98.94421647
 C          2.6239600993        1.3162821031        0.1269117336
 C          2.6220255757        0.2793651527       -0.8369812980
 C          3.7525726488       -0.6592544397       -0.7687691981
 C          4.7033519841       -0.4837121281        0.1668155546
 C          5.8842608751       -1.3864820632        0.3732758456
 C          5.5690716264       -2.4908922775        1.3915138619
 C          4.2570360820       -3.2262054879        1.1178087403
 H          4.1547110765       -4.0038441260        1.8777864559
 H          3.4227751381       -2.5337616437        1.2536310785
 C          4.1640490644       -3.8602805698       -0.2770727655
 H          5.1606602416       -3.9506886989       -0.7107597808
 H          3.7611196689       -4.8702561322       -0.1764706571
 C          3.2527481018       -3.1146344988       -1.2541268856
 H          3.0862271744       -3.7586118283       -2.1220848960
 H          2.2788498696       -2.9394946569       -0.7884656888
 C          3.7866381229       -1.7743767750       -1.7757050606
 H          4.7964162407       -1.9089495149       -2.1691337989
 H          3.1370258635       -1.4566622612       -2.5967423758
 H          6.3945650877       -3.2048845938        1.3931429294
 H          5.5074077474       -2.0394620582        2.3842914497
 H          6.1690855202       -1.8269180428       -0.5801429254
 H          6.7140467192       -0.7850769652        0.7483393141
 O          4.6716928176        0.5258763587        1.0732390975
 C          3.6301339497        1.4370063179        1.0875947031
 O          3.7128042247        2.2979454975        1.9861085805
 O          1.7333271443        0.1427604565       -1.7193412968
 C          1.5049603483        2.3447585720        0.1671851267
 C          0.2139187419        1.6409628565        0.5065970667
 C          0.0243154922        1.1839065280        1.8086363565
 C         -1.1244037873        0.4995940896        2.1552759158
 C         -2.1067424750        0.2498737231        1.2114699247
 C         -1.9179384770        0.6831088852       -0.0930399159
 C         -0.7684666264        1.3864871975       -0.4352166666
 H         -0.6327806723        1.7103253835       -1.4546367079
 N         -2.9045027802        0.4436524642       -1.0607174124
 S         -3.7304750047       -1.0131553959       -1.0790274165
 O         -2.9256290256       -2.1039341454       -0.5802579952
 O         -4.2233540685       -1.1443447808       -2.4329036098
 C         -5.1102347092       -0.7197342169        0.0098455616
 C         -5.8658483485        0.4194001243       -0.1882096463
 C         -6.9491074405        0.6572632865        0.6423219352
 C         -7.2598902599       -0.2444301473        1.6493084481
 C         -6.4945278377       -1.3856270742        1.8327734687
 C         -5.4086043246       -1.6286238063        1.0058528179
 H         -4.7822431000       -2.4998150681        1.1159389865
 H         -6.7377081028       -2.0861022319        2.6155556770
 H         -8.1033773696       -0.0566876506        2.2947758299
 H         -7.5463393556        1.5439292885        0.5026817779
 H         -5.5933622993        1.0941323268       -0.9823332786
 H         -2.6414605261        0.7286094840       -1.9927395719
 H         -2.9998303801       -0.2931562289        1.4735626398
 H         -1.2593371822        0.1548206458        3.1693479976
 H          0.7981956124        1.3679675022        2.5416828292
 H          1.7496253473        3.0215167524        0.9970326510
 C          1.4543226219        3.1481289130       -1.1152847145
 C          0.7145444799        4.4509100616       -1.1407512105
 C          2.2119274486        4.4376735443       -1.1969595769
 H          2.6967366881        4.6913513748       -2.1278149262
 H          2.7616279353        4.7488402546       -0.3206053999
 H          0.1700334151        4.7190236484       -2.0333328937
 H          0.2449140647        4.7733945676       -0.2239368008
 H          1.4336706993        2.5310351578       -2.0055001654
