  62
        -98.93916125
 C          1.9464840730        0.8505868960        0.6863700608
 C          1.9971889037        0.2057789057       -0.5743455230
 C          2.3229470563       -1.2281837897       -0.5489089120
 C          2.4827570796       -1.8511732150        0.6317132262
 C          2.8533683453       -3.2958273971        0.7995335237
 C          4.3761373765       -3.4767453194        0.8726629910
 C          5.1369168041       -2.7625961917       -0.2445068134
 H          5.0173999061       -1.6836046132       -0.1225252677
 H          6.1973431074       -2.9861367972       -0.1100283159
 C          4.7046796370       -3.1619783915       -1.6621711051
 H          4.1570423707       -4.1044209739       -1.6303744257
 H          5.5984142822       -3.3253723195       -2.2678193059
 C          3.8614313032       -2.1110328248       -2.3865487079
 H          3.7955276240       -2.3948046170       -3.4401320745
 H          4.3646001202       -1.1420567603       -2.3392150677
 C          2.4272043584       -1.9347541585       -1.8712911116
 H          1.8889892367       -1.3056209803       -2.5865275842
 H          1.9274943960       -2.9048153084       -1.8266368593
 H          4.7246979481       -3.0841293161        1.8307682174
 H          4.5978047226       -4.5450141312        0.8420787811
 H          2.4056847544       -3.6575692945        1.7269311455
 H          2.4465836105       -3.8664614743       -0.0332029693
 O          2.3661791900       -1.2134684133        1.8254026081
 C          2.0865020866        0.1414585591        1.8805734791
 O          1.9863822993        0.5949316875        3.0404044693
 H         -0.6398247008        0.8882627519        0.7149734892
 C         -0.7082593038        1.7437359862        0.0571160999
 C          0.3693797037        2.6169625004       -0.0384519323
 C          0.2601623564        3.7147569106       -0.8805000708
 C         -0.8998838107        3.9226880816       -1.6079473017
 C         -1.9618721831        3.0433475148       -1.5220570874
 C         -1.8558378669        1.9304105657       -0.6920908469
 N         -2.8916034444        0.9830530254       -0.6425487348
 S         -2.9531083315       -0.1931308134        0.5525624998
 O         -3.0127872850        0.4138615938        1.8658435913
 O         -1.8932827542       -1.1462367560        0.3329900976
 C         -4.5233505085       -0.9386666072        0.1562465745
 C         -4.5788702394       -1.8395555570       -0.8905954981
 C         -5.7992197640       -2.4046588183       -1.2246662542
 C         -6.9378511447       -2.0617303840       -0.5104176897
 C         -6.8665457607       -1.1582043495        0.5390417807
 C         -5.6490050670       -0.5880728708        0.8771334476
 H         -5.5428117561        0.1120471101        1.6900888919
 H         -7.7524608438       -0.8962411543        1.0946457912
 H         -7.8860605745       -2.5042088036       -0.7716871544
 H         -5.8573959241       -3.1095662762       -2.0382402296
 H         -3.6654136163       -2.0815184273       -1.4088918409
 H         -3.8010493874        1.3539415678       -0.8767605039
 H         -2.8592164613        3.2024469463       -2.0996320356
 H         -0.9739537991        4.7820190377       -2.2571411769
 H          1.0852745540        4.4003596486       -0.9812193321
 C          1.5815644983        2.3197766841        0.8127014955
 H          1.2764434560        2.4416562343        1.8667255503
 C          2.7396211009        3.2807284621        0.5833070232
 C          4.1624098894        2.8220442140        0.6960579280
 C          3.6037210019        3.2085442756       -0.6385382165
 H          3.9397439846        4.1336395270       -1.0837608949
 H          3.3851415639        2.4301989406       -1.3518417647
 H          4.3350835696        1.7741168567        0.8963377633
 H          4.8758069385        3.4798033750        1.1698729716
 H          2.5282837767        4.2716081225        0.9735198314
 O          1.7857983273        0.7860710418       -1.6707445429
