  62
        -98.94965136
 C         -1.6875436802       -1.2313406660        0.3395201485
 C         -1.3296625296       -0.1588490684       -0.5105099887
 C         -1.9195251440        1.1421311106       -0.1827860729
 C         -2.7121331731        1.2618671489        0.8973362929
 C         -3.3588766157        2.5300315498        1.3850220579
 C         -4.6739724811        2.8791537828        0.6741801542
 C         -4.5260934220        3.3796824755       -0.7632199577
 H         -5.4926936436        3.7924569556       -1.0587801752
 H         -3.8018143856        4.1943998506       -0.7885546775
 C         -4.1217006268        2.2963542667       -1.7726340562
 H         -4.7498790054        2.3757488941       -2.6626015550
 H         -4.3019398441        1.3101669330       -1.3388422366
 C         -2.6668681549        2.3737757792       -2.2353438222
 H         -2.5058289813        3.3036783780       -2.7849664222
 H         -2.4794330297        1.5407350854       -2.9171361652
 C         -1.6397833983        2.2952962090       -1.0981171621
 H         -0.6494771200        2.1399191828       -1.5334848393
 H         -1.6239329468        3.2284890490       -0.5349003152
 H         -5.1614866812        3.6614724112        1.2605445443
 H         -5.3219643651        1.9997571577        0.6898599749
 H         -2.6547724547        3.3572326516        1.2867513044
 H         -3.5688249649        2.3815220761        2.4467473570
 O         -3.0103243882        0.2116172086        1.7088767241
 C         -2.5077565850       -1.0537600751        1.4513927634
 O         -2.8573706422       -1.9252023750        2.2757979943
 O         -0.5515867336       -0.2832835894       -1.4929884353
 C         -1.1111721729       -2.6123975220        0.0877345726
 C          0.3962158425       -2.5398171431        0.0350972654
 C          1.1626374194       -3.2771694272       -0.8594623483
 C          2.5414889280       -3.1550094445       -0.8708591185
 C          3.1821863089       -2.2811537220       -0.0115512719
 C          2.4246318330       -1.5469007968        0.8931469515
 C          1.0492755315       -1.7036261665        0.9315806397
 H          0.4777445832       -1.1266962159        1.6444898854
 N          3.0209311398       -0.6202684544        1.7756336334
 S          2.6142034313        0.9923475490        1.5522018614
 O          3.4152368203        1.7166756624        2.5166657157
 O          1.1878499290        1.1619949117        1.6518418784
 C          3.1991226616        1.3623067828       -0.0927759259
 C          2.4547228733        0.9656952888       -1.1855786413
 C          2.9676191311        1.1893452681       -2.4548690008
 C          4.2038611054        1.7965906663       -2.6098651265
 C          4.9383258716        2.1885851060       -1.5005159656
 C          4.4355848415        1.9649988129       -0.2293967590
 H          4.9683867483        2.2535254199        0.6624083363
 H          5.8988447236        2.6629585895       -1.6217832131
 H          4.5956254734        1.9654102652       -3.6005611985
 H          2.3898892187        0.8810569277       -3.3115439949
 H          1.4918381544        0.4978352663       -1.0467416451
 H          4.0284180056       -0.6976331450        1.8213084562
 H          4.2551242749       -2.1639490328       -0.0386517006
 H          3.1229002328       -3.7339220164       -1.5719446334
 H          0.6781087330       -3.9444508308       -1.5534414031
 H         -1.3984141504       -3.2274629328        0.9536702252
 C         -1.7229537076       -3.2112789288       -1.1632607045
 C         -1.9325818609       -4.6908692197       -1.2749910787
 C         -3.1070688657       -3.7795867681       -1.0872603306
 H         -3.7776570283       -3.6197045121       -1.9182138752
 H         -3.5951780555       -3.7609626755       -0.1232895846
 H         -1.8008321038       -5.1594909212       -2.2386488178
 H         -1.6315862263       -5.3040218213       -0.4389983384
 H         -1.4567318120       -2.6605726960       -2.0582678030
