  62
        -98.94792963
 C         -0.9337182799       -1.0723744370        0.7055189721
 C         -1.4549145595       -0.8974240213       -0.5993534718
 C         -2.1782790996        0.3589935963       -0.8304618292
 C         -2.2765192382        1.2670843414        0.1567717457
 C         -2.9526624289        2.6087866713        0.0625318013
 C         -4.4715352755        2.5612964222        0.2786985950
 C         -5.2756152492        1.9544255620       -0.8715981485
 H         -6.3263575048        2.1839495683       -0.6836468943
 H         -4.9973655281        2.4438467188       -1.8055694884
 C         -5.1218895161        0.4343234116       -1.0199876803
 H         -4.7062385357        0.0179549712       -0.0996695441
 H         -6.1054510615       -0.0189304477       -1.1620660320
 C         -4.2486104753       -0.0023593613       -2.1965579363
 H         -4.1774306301       -1.0929070476       -2.1861882831
 H         -4.7209557402        0.2951460543       -3.1355127936
 C         -2.8228389315        0.5637867081       -2.1671291505
 H         -2.8300553797        1.6223744836       -2.4285025072
 H         -2.2194201909        0.0314652229       -2.9071296744
 H         -4.6754923089        2.0069779960        1.1974958382
 H         -4.8109275800        3.5890375120        0.4268608925
 H         -2.7335465066        3.0606994528       -0.9059263733
 H         -2.5152629556        3.2349399747        0.8433076568
 O         -1.7348077489        1.0732580460        1.3892378444
 C         -1.0500355211       -0.0937958105        1.6910249835
 O         -0.5940073831       -0.1361046717        2.8516420133
 O         -1.3265370996       -1.7445674819       -1.5213335285
 C         -0.1409208121       -2.3221140278        1.0421015120
 C          1.0630923449       -2.4132566587        0.1351643834
 C          1.5019530695       -3.5965836772       -0.4443673797
 C          2.6073210725       -3.5976051099       -1.2779481055
 C          3.2858061561       -2.4263543132       -1.5609778297
 C          2.8610023709       -1.2387787241       -0.9760971281
 C          1.7745704705       -1.2476324092       -0.1183022524
 H          1.4512829799       -0.3228540582        0.3373787538
 N          3.5243038274       -0.0258272712       -1.2176308640
 S          2.6312109660        1.3833415742       -1.3564257698
 O          1.3478727044        1.1556322983       -1.9780701273
 O          3.5170473095        2.2954316419       -2.0517386446
 C          2.4207636913        1.9562908898        0.3147527162
 C          1.1876514646        2.4396064890        0.7033496744
 C          1.0255511381        2.9051199115        1.9979185584
 C          2.0979083148        2.8832335893        2.8755217001
 C          3.3329357266        2.4024481823        2.4674842279
 C          3.5011235227        1.9349840571        1.1740938049
 H          4.4437807372        1.5502424225        0.8223724001
 H          4.1626952062        2.3864267945        3.1556740951
 H          1.9654036776        3.2390873422        3.8849591990
 H          0.0611361029        3.2649209994        2.3189830730
 H          0.3758425650        2.4207304651       -0.0083836428
 H          4.2657854512       -0.0706312682       -1.9016499584
 H          4.1329127096       -2.4260963109       -2.2299252428
 H          2.9360504895       -4.5226877142       -1.7268928117
 H          0.9733700295       -4.5159876697       -0.2526208955
 H          0.2182559415       -2.1868342810        2.0732617353
 C         -1.0297922591       -3.5473469573        0.9905581210
 C         -0.7543522926       -4.7208350680        1.8808619897
 C         -1.9312368519       -3.8341755078        2.1524943457
 H         -2.9226097741       -4.2135598814        1.9551863924
 H         -1.8817353240       -3.1592439324        2.9948011272
 H         -0.9408672269       -5.7131713457        1.4986724242
 H          0.0917596188       -4.6551556667        2.5479819488
 H         -1.4187518760       -3.7357502015       -0.0035550259
