  62
        -98.94308662
 C         -2.5651150096       -0.1665590986        0.5354364990
 C         -2.2044474579        0.3691649937       -0.7265338769
 C         -1.9784348707        1.8225518113       -0.7668921272
 C         -2.0726415068        2.5399284821        0.3660128693
 C         -1.8329407370        4.0177351675        0.4757989786
 C         -0.3715954282        4.3285292582        0.8246260675
 C          0.6462994428        3.6178859255       -0.0679584904
 H          1.6382017665        3.9631237275        0.2341628771
 H          0.6161077578        2.5424756844        0.1265680028
 C          0.4554063362        3.8609497037       -1.5716176948
 H          1.4323816152        4.0567492899       -2.0181679461
 H         -0.1597961176        4.7480778930       -1.7307336347
 C         -0.1486437446        2.6745833495       -2.3257487923
 H          0.3888071915        1.7633790731       -2.0525236546
 H         -0.0035544560        2.8398030919       -3.3970704157
 C         -1.6465557528        2.4333671270       -2.0991150645
 H         -2.1982812752        3.3656092659       -2.2429401646
 H         -1.9835557944        1.7131415126       -2.8505386122
 H         -0.1888928614        4.0239969732        1.8580749860
 H         -0.2253408376        5.4085600150        0.7560777462
 H         -2.4754688958        4.4091919473        1.2668317236
 H         -2.1012891012        4.4928635119       -0.4659505220
 O         -2.3761018901        1.9851447830        1.5688323433
 C         -2.6077074417        0.6250289619        1.6844701528
 O         -2.8453082721        0.2457902487        2.8507068944
 O         -2.0933036873       -0.3163620528       -1.7756188967
 C         -2.7825427379       -1.6580589894        0.7371140891
 C         -1.6452463935       -2.4106282757        0.0903749753
 C         -1.8045945008       -3.4459609278       -0.8202191424
 C         -0.6958668195       -4.0554833139       -1.3828432695
 C          0.5834887794       -3.6382369656       -1.0663207259
 C          0.7524696956       -2.6079141266       -0.1477925659
 C         -0.3566854345       -2.0236995947        0.4374621983
 H         -0.2166302929       -1.2215266200        1.1494221645
 N          2.0349497328       -2.1505659228        0.2122634095
 S          2.2019128640       -0.4796736308        0.4228851346
 O          1.8088788248       -0.1378806074        1.7686821497
 O          1.5324131364        0.2259605297       -0.6433440344
 C          3.9697510765       -0.3082441567        0.2632126161
 C          4.5048608533        0.1890152658       -0.9095825879
 C          5.8825479197        0.2897640706       -1.0275504185
 C          6.6962047378       -0.1091730547        0.0219904938
 C          6.1439883957       -0.6057247137        1.1937765980
 C          4.7677337932       -0.7074522870        1.3189215799
 H          4.2918525463       -1.0771292753        2.2122654351
 H          6.7795903582       -0.9120575172        2.0088000928
 H          7.7676571928       -0.0300219186       -0.0723106922
 H          6.3140539282        0.6784034349       -1.9358034180
 H          3.8313609872        0.4919109584       -1.6953249941
 H          2.7568132862       -2.5107369979       -0.3981690327
 H          1.4443856686       -4.0979405339       -1.5279068481
 H         -0.8320101842       -4.8543716999       -2.0961556954
 H         -2.7941810445       -3.7571104145       -1.1121429813
 H         -2.6980313909       -1.8061372380        1.8275206714
 C         -4.1609011871       -2.1638161908        0.3396323265
 C         -5.3425407020       -1.2417584645        0.3111362267
 C         -4.8037020436       -1.8087284231       -0.9660825523
 H         -5.3841168080       -2.5664046256       -1.4721811346
 H         -4.2551549844       -1.1593988240       -1.6290856771
 H         -6.2875773451       -1.6086648902        0.6827660421
 H         -5.1647785583       -0.1971038479        0.5233215542
 H         -4.3466949305       -3.1647506742        0.7174108162
