  62
        -98.94077693
 C          1.6452741736        1.5427861711       -0.2303414620
 C          2.8704651757        1.3097954454        0.4396399739
 C          3.6748215357        0.1688404227       -0.0315280065
 C          3.2021560550       -0.5890708992       -1.0362737111
 C          3.8086209461       -1.8414192172       -1.6068351323
 C          3.2515308634       -3.0855649326       -0.8928073143
 C          4.0246987846       -3.5131501077        0.3533695700
 H          3.4688395017       -4.3308616876        0.8176174593
 H          4.9985753083       -3.9074724013        0.0557385989
 C          4.2382378643       -2.4120887163        1.3949464791
 H          3.3180289741       -1.8375963806        1.5170800861
 H          4.4489810087       -2.8920650331        2.3525464508
 C          5.3991112888       -1.4690194143        1.0463356288
 H          5.9839615839       -1.9044507242        0.2363250936
 H          6.0713299226       -1.3890641590        1.9033600687
 C          4.9867084658       -0.0376758965        0.6759189589
 H          4.9066478915        0.5629941976        1.5874917304
 H          5.7805021034        0.4169553974        0.0732846497
 H          2.2132350804       -2.8791686983       -0.6229647736
 H          3.2509353628       -3.9217787315       -1.5948365329
 H          3.5135814328       -1.8796643406       -2.6575607095
 H          4.8924601183       -1.8068991342       -1.5511532470
 O          2.0184380358       -0.3281764635       -1.6553226305
 C          1.2160701221        0.7377196837       -1.2849101012
 O          0.1790298539        0.8512540930       -1.9650711662
 O          3.2723071593        2.0216883816        1.3987276152
 C          0.7555962238        2.6714616369        0.2658626188
 C         -0.4826780034        2.0278872968        0.8372175910
 C         -0.4265268571        1.4506169261        2.1033581299
 C         -1.5054259130        0.7515166945        2.6108085122
 C         -2.6556555063        0.5918349152        1.8568756448
 C         -2.7159443139        1.1566028977        0.5902740782
 C         -1.6452246015        1.8893770263        0.0959635764
 H         -1.7075673837        2.3144054767       -0.8927810674
 N         -3.8596822166        0.9542003002       -0.2033661931
 S         -4.4461688527       -0.6115553540       -0.2834574098
 O         -5.0677270332       -0.7229569275       -1.5850445911
 O         -5.3182470234       -0.8504944874        0.8412653458
 C         -3.0302387251       -1.6957716014       -0.1728387164
 C         -1.9650349877       -1.5009092771       -1.0289062255
 C         -0.8765915582       -2.3544765077       -0.9477365930
 C         -0.8709116690       -3.3853618284       -0.0214028094
 C         -1.9498448454       -3.5697134345        0.8295462287
 C         -3.0396272227       -2.7177520023        0.7555633387
 H         -3.8963362794       -2.8208701119        1.4017494009
 H         -1.9428360336       -4.3715529612        1.5501916510
 H         -0.0214117306       -4.0483097705        0.0370307890
 H         -0.0375022427       -2.1917292573       -1.6065369699
 H         -1.9657099946       -0.6875301839       -1.7369625583
 H         -3.7797394435        1.3509693406       -1.1287238455
 H         -3.5015507301        0.0348674103        2.2264186531
 H         -1.4487196560        0.3150354227        3.5962662830
 H          0.4840725329        1.5449168870        2.6784137000
 H          1.3118603930        3.1473436054        1.0840064196
 C          0.4840840963        3.7041355107       -0.8066335059
 C         -0.0929341267        5.0315252528       -0.4174727180
 C          1.3331229885        4.9369096690       -0.8675580736
 H          1.5962813340        5.3331758480       -1.8368992930
 H          2.1120268133        5.0443678263       -0.1270682261
 H         -0.8107141716        5.4966461325       -1.0758941094
 H         -0.2838234758        5.2021900084        0.6312030527
 H          0.1749848895        3.2737129373       -1.7515177161
