  62
        -98.93908975
 C          2.5176321848        1.2188770239        0.3274321213
 C          2.4953254375        0.3896046706       -0.8170003435
 C          3.2034136269       -0.9033982891       -0.7159373118
 C          3.8238151692       -1.2152973483        0.4370553097
 C          4.5712810563       -2.4756217473        0.7835421773
 C          3.6338786569       -3.6554336354        1.0876943324
 C          2.4622926366       -3.8122312517        0.1212470510
 H          1.8683838764       -2.8952669132        0.1175249911
 H          1.8167932145       -4.6069089780        0.5056830974
 C          2.8445665120       -4.1741344710       -1.3121436037
 H          1.9132956135       -4.3359819529       -1.8614435645
 H          3.3968422521       -5.1165608964       -1.3078077246
 C          3.6675597261       -3.1303547101       -2.0702400025
 H          3.6516506594       -3.4109573181       -3.1273470697
 H          4.7089835659       -3.1507228475       -1.7606027507
 C          3.1200884443       -1.7087569799       -1.9899018223
 H          2.0594148980       -1.7168041990       -2.2687759939
 H          3.6143308096       -1.0998938803       -2.7565630124
 H          3.2205440112       -3.5103242601        2.0889566111
 H          4.2246127808       -4.5728951213        1.0966198134
 H          5.2660490807       -2.7277336674       -0.0118075381
 H          5.1555461696       -2.2567889230        1.6800501267
 O          3.8111983345       -0.3838317830        1.5194246437
 C          3.1546239534        0.8312067770        1.5039452709
 O          3.2037324305        1.4617911673        2.5806881269
 H          0.2301363637        0.7810165697        1.5317631778
 C         -0.3282633156        1.3221630308        0.7760606707
 C          0.3191882290        2.3034883610        0.0346607657
 C         -0.4077268263        2.9910759337       -0.9272689428
 C         -1.7392762741        2.6838426394       -1.1504835196
 C         -2.3742709941        1.6963698345       -0.4203310339
 C         -1.6589969373        1.0096680508        0.5523803430
 N         -2.2993200400        0.0057769378        1.3073380245
 S         -2.9586466584       -1.2782370295        0.4415126280
 O         -3.0007396132       -2.3820908359        1.3766867789
 O         -2.2449794051       -1.5102082071       -0.7932548785
 C         -4.6215062489       -0.7414865695        0.1018777139
 C         -5.0725104239       -0.6758877170       -1.2017098698
 C         -6.3725774078       -0.2571352829       -1.4398409494
 C         -7.1929785905        0.0861215522       -0.3761260923
 C         -6.7248434800        0.0126678085        0.9276042298
 C         -5.4270885817       -0.4065226705        1.1727894818
 H         -5.0242868229       -0.4813897017        2.1690323755
 H         -7.3657230009        0.2807912144        1.7519570430
 H         -8.2032801707        0.4133750032       -0.5643705722
 H         -6.7379560582       -0.1990702868       -2.4525353524
 H         -4.3950459572       -0.9454541152       -1.9962725059
 H         -1.7225234544       -0.3534019944        2.0553971507
 H         -3.4085264215        1.4500883322       -0.5971325903
 H         -2.2897558113        3.2201388766       -1.9082412371
 H          0.0714078650        3.7580849251       -1.5129096598
 C          1.7824645897        2.5475393439        0.3161229435
 H          1.8724377737        2.9527976449        1.3347851601
 C          2.4383503595        3.5086933312       -0.6521422908
 C          2.3436007688        4.9868542904       -0.4258614394
 C          3.6437507506        4.2762574372       -0.2024421482
 H          4.4472889175        4.4326126557       -0.9063198131
 H          3.9782245689        4.1221957146        0.8134305811
 H          1.7968447643        5.3255622904        0.4410625629
 H          2.2575470431        5.6356011862       -1.2843392191
 H          2.4302533728        3.1413256952       -1.6717446462
 O          1.9066253108        0.7042887399       -1.8842464283
