  62
        -98.93896217
 C         -2.0321017601       -0.8338816285        0.5158305005
 C         -1.9467592398       -0.1212489988       -0.7021139996
 C         -2.0296269489        1.3464050813       -0.6083225799
 C         -2.1494191285        1.9182995116        0.6019965000
 C         -2.2851584477        3.3830559017        0.9168150298
 C         -3.7660354675        3.7929924625        0.9953039498
 C         -4.3926020373        4.2061205627       -0.3358097002
 H         -5.4613198172        4.3486382533       -0.1607603201
 H         -3.9784949468        5.1684875324       -0.6432414604
 C         -4.2110986380        3.2070020924       -1.4810376400
 H         -4.3784035285        2.1928836225       -1.1138906299
 H         -4.9786164379        3.4121287827       -2.2296626000
 C         -2.8300659379        3.2963109215       -2.1477303001
 H         -2.3288291874        4.2045316313       -1.8140815203
 H         -2.9547525580        3.3900152614       -3.2285157601
 C         -1.9157121086        2.0857765810       -1.9131452600
 H         -2.1117760791        1.3268533410       -2.6775672599
 H         -0.8692945684        2.3861794104       -2.0385362901
 H         -4.3221286179        2.9535183829        1.4202952300
 H         -3.8599611570        4.6315448127        1.6882269297
 H         -1.8282234276        3.5302042516        1.8979413098
 H         -1.7457620574        3.9822016813        0.1891799497
 O         -2.2215129789        1.1927467618        1.7539733402
 C         -2.1476198196       -0.1872771582        1.7438315604
 O         -2.2022347899       -0.7177049180        2.8738503405
 H          0.4577363898       -1.1664212598        0.9083393504
 C          0.5429005193       -1.9741537300        0.1946820705
 C         -0.5816845112       -2.7204506694       -0.1344046193
 C         -0.4435640718       -3.7644475196       -1.0395530591
 C          0.7842096380       -4.0234464404       -1.6245271192
 C          1.8891806385       -3.2466208210       -1.3308424194
 C          1.7655032791       -2.2130481708       -0.4082397995
 N          2.8730508396       -1.4180429313       -0.0613324297
 S          2.6091142805        0.2052720289        0.3228411600
 O          2.1778440906        0.2947377593        1.6967589200
 O          1.7566145408        0.8320270292       -0.6621158100
 C          4.2772038708        0.8222247579        0.1834947298
 C          5.1575389508        0.5802441676        1.2213534398
 C          6.4669553210        1.0187237668        1.1054408996
 C          6.8724399913        1.6879956264       -0.0399485305
 C          5.9772445514        1.9259436868       -1.0718931605
 C          4.6662794011        1.4883340475       -0.9630163703
 H          3.9330121712        1.6547302878       -1.7359559803
 H          6.2940883316        2.4490486664       -1.9596776206
 H          7.8920244715        2.0284008659       -0.1276852906
 H          7.1647012009        0.8375238066        1.9069500896
 H          4.7927919405        0.0642270379        2.0941328199
 H          3.6419661595       -1.5186642819       -0.7106359398
 H          2.8389688483       -3.4346244516       -1.8078649194
 H          0.8768004775       -4.8316718606       -2.3340966091
 H         -1.2999227022       -4.3652116092       -1.2988129690
 C         -1.8928200009       -2.3453209386        0.5145301607
 H         -1.8544569110       -2.6491759584        1.5716146208
 C         -3.0973775113       -2.9909368880       -0.1384920791
 C         -3.5584522021       -4.3484859377        0.2972524111
 C         -4.3585705114       -3.1339820172        0.6574826610
 H         -5.3031347613       -2.9694864567        0.1612462010
 H         -4.3369441311       -2.7885648270        1.6811790609
 H         -3.9589848925       -5.0204038676       -0.4467150387
 H         -3.0014449223       -4.8371564779        1.0822984712
 H         -3.1920733312       -2.7251186981       -1.1850929691
 O         -1.8171074301       -0.6849788190       -1.8214464496
