  62
        -98.94343869
 C         -1.9635161943       -0.8549955198        0.0155839443
 C         -2.2532420161        0.0949754064        1.0219640286
 C         -2.4688501439        1.4702008395        0.5622036911
 C         -2.3392217915        1.7638976199       -0.7444989737
 C         -2.4839091513        3.1282153785       -1.3630311311
 C         -3.9338573240        3.5291371215       -1.6680823472
 C         -4.7850496673        3.8718080297       -0.4448306145
 H         -4.2616163277        4.6092453297        0.1643599454
 H         -5.6997943792        4.3410785879       -0.8120478775
 C         -5.1639689154        2.6621309716        0.4207919170
 H         -5.0079199276        1.7432554905       -0.1489436801
 H         -6.2265011600        2.7096999757        0.6691181344
 C         -4.3950592029        2.5607577015        1.7381452538
 H         -4.6419241295        3.4133599567        2.3745714128
 H         -4.7147701937        1.6514591536        2.2534070172
 C         -2.8703605879        2.4995190098        1.5753166244
 H         -2.4797706830        3.4785738271        1.2973261645
 H         -2.4309029606        2.2091348676        2.5332428279
 H         -4.4082155704        2.7198338257       -2.2276833444
 H         -3.8982559526        4.4069668640       -2.3172318506
 H         -2.0252978195        3.8728468721       -0.7114763272
 H         -1.9261955368        3.1009154468       -2.3016527446
 O         -2.0342253378        0.8261936616       -1.6802238272
 C         -1.8409135013       -0.5007625060       -1.3279402104
 O         -1.5747389573       -1.2522689134       -2.2859692977
 H          0.4938059340       -0.7553236990        0.3639881226
 C          0.7170070554       -1.7679949438        0.0604754175
 C         -0.3017646310       -2.7109302245        0.0167291797
 C          0.0153345815       -4.0103420689       -0.3593878108
 C          1.3169392405       -4.3445982189       -0.6921212402
 C          2.3233651806       -3.3978578455       -0.6644303896
 C          2.0151406682       -2.0918953203       -0.2951848810
 N          3.0047570989       -1.0963246231       -0.3181806702
 S          2.7755455296        0.3870296052        0.4351988085
 O          2.5109686117        0.2072905772        1.8470138784
 O          1.8049669799        1.1510775859       -0.3090361470
 C          4.3982624866        1.0895160186        0.2065133147
 C          4.7109393968        1.6397242180       -1.0222873354
 C          5.9784458848        2.1640680053       -1.2191168863
 C          6.9077882634        2.1293426843       -0.1898540435
 C          6.5792835993        1.5759314712        1.0384075845
 C          5.3132858068        1.0489146503        1.2413869915
 H          5.0090429086        0.6173190867        2.1813123401
 H          7.3024132711        1.5533692257        1.8375889809
 H          7.8931465512        2.5391269014       -0.3456558732
 H          6.2357569169        2.5975307032       -2.1720638800
 H          3.9521432532        1.6519046003       -1.7876074613
 H          3.9453129514       -1.4485740315       -0.2129921388
 H          3.3347685228       -3.6578059670       -0.9356487844
 H          1.5498214529       -5.3583889465       -0.9805178627
 H         -0.7577551077       -4.7605861689       -0.3935863077
 C         -1.6978089915       -2.2931153744        0.4139743909
 H         -1.7556914880       -2.3066873979        1.5140243896
 C         -2.7718972890       -3.2070593591       -0.1418949020
 C         -3.2287355988       -4.4072210276        0.6310163504
 C         -4.1220961173       -3.2108836024        0.5083248631
 H         -4.9974563003       -3.2781624077       -0.1199549280
 H         -4.2534733448       -2.5779297860        1.3741195556
 H         -3.4948018718       -5.3001939101        0.0857132000
 H         -2.7644748033       -4.5929337860        1.5878926130
 H         -2.7363329760       -3.2737519347       -1.2235425246
 O         -2.3242346055       -0.1937868517        2.2491674966
