  62
        -98.93679698
 C         -2.4830704738       -1.2794788764        0.2162784009
 C         -2.6531012765       -0.4271126211       -0.9009250908
 C         -3.5402420112        0.7301420439       -0.6987223580
 C         -4.1229873885        0.9101491885        0.5005329464
 C         -4.9838085900        2.0801109813        0.8847948935
 C         -4.1008844161        3.3108442063        1.1750135506
 C         -4.2909342855        4.4684712997        0.1945535376
 H         -5.2276453297        4.9792562946        0.4270454338
 H         -3.4780377010        5.1775404614        0.3651974322
 C         -4.3195808454        4.0893334641       -1.2893217557
 H         -4.1916898973        5.0143200001       -1.8555361746
 H         -5.3047368787        3.6994386177       -1.5493218038
 C         -3.2568549177        3.0814765872       -1.7462360868
 H         -2.9024752703        3.3860391951       -2.7329599809
 H         -2.3940276710        3.1018213724       -1.0798945529
 C         -3.7626868598        1.6329075328       -1.8805449029
 H         -4.8247925415        1.6395228701       -2.1402920321
 H         -3.2251542531        1.1508836468       -2.7025044563
 H         -3.0559359221        2.9926637054        1.1661121619
 H         -4.3072429279        3.6777673940        2.1817157383
 H         -5.6896305578        2.2950896784        0.0856786697
 H         -5.5417460328        1.7942221318        1.7766925473
 O         -3.9261119696        0.0720648729        1.5529007043
 C         -3.1008167660       -1.0353955571        1.4411260491
 O         -2.9949965186       -1.7077979095        2.4880540323
 H         -0.2060184716       -0.4599389769        1.1256974552
 C          0.3817349631       -0.9882338310        0.3835084942
 C         -0.1793776601       -2.0800075268       -0.2676773161
 C          0.5930625296       -2.7595901903       -1.2002249230
 C          1.8810883658       -2.3387464018       -1.4839494166
 C          2.4262633911       -1.2384028527       -0.8491039122
 C          1.6680733756       -0.5592797051        0.0958796225
 N          2.2084997009        0.5678389901        0.7411360635
 S          3.7131434439        0.4123021697        1.4720792170
 O          3.9505327576       -0.9438711789        1.9097936158
 O          3.7414932415        1.4330377386        2.4971564136
 C          4.8615079709        0.8503625371        0.1843586782
 C          4.7055023656        2.0739097045       -0.4370544142
 C          5.5951901849        2.4345945922       -1.4362546052
 C          6.6214271583        1.5721449413       -1.7926477161
 C          6.7664787096        0.3487649657       -1.1565992777
 C          5.8791097641       -0.0187987523       -0.1568762184
 H          5.9484075176       -0.9619643895        0.3612139103
 H          7.5647923710       -0.3200967867       -1.4353495643
 H          7.3119642379        1.8556335483       -2.5711665867
 H          5.4850821623        3.3848040300       -1.9336127607
 H          3.8965132428        2.7150905642       -0.1287378409
 H          1.5603741502        1.0237750588        1.3669343244
 H          3.4253833224       -0.9028870869       -1.0741389536
 H          2.4674069948       -2.8735273046       -2.2153890006
 H          0.1853734356       -3.6178878324       -1.7082972374
 C         -1.5825154626       -2.4957764518        0.1057062794
 H         -1.5451206083       -2.9391446229        1.1123591492
 C         -2.1874011751       -3.5055970304       -0.8479925953
 C         -1.9553541494       -4.9720363708       -0.6463856587
 C         -3.3012301156       -4.3797330097       -0.3583316412
 H         -4.1183339704       -4.5992998265       -1.0288909664
 H         -3.6024104537       -4.2654341745        0.6732486511
 H         -1.3450485682       -5.2718168535        0.1922691240
 H         -1.8516753741       -5.6025960324       -1.5165299263
 H         -2.2549743190       -3.1293543663       -1.8621305635
 O         -2.0929031069       -0.6205600957       -2.0105648944
