  62
        -98.93386439
 C          1.7917660007        0.9871459256        0.4386766871
 C          2.3887280316       -0.1521226160        1.0315691702
 C          3.8490569256       -0.3091295501        0.8905326513
 C          4.5359029186        0.6359762464        0.2226672851
 C          6.0095412971        0.6811707565       -0.0828771631
 C          6.4086383421       -0.2772197473       -1.2162641636
 C          5.7858501146       -1.6681404748       -1.1304542685
 H          6.0596755603       -2.2112885155       -2.0388692430
 H          4.6981340968       -1.5751821869       -1.1251680175
 C          6.2290855762       -2.5070285161        0.0658695868
 H          7.3146895417       -2.6249739450        0.0387512456
 H          5.7845328367       -3.4987470133       -0.0515171621
 C          5.8324975013       -1.9711959362        1.4433415311
 H          6.4822690819       -1.1560106868        1.7503207913
 H          5.9879651303       -2.7797039290        2.1637597808
 C          4.3704968956       -1.5535389229        1.5677561959
 H          4.1317823066       -1.4311922924        2.6314057501
 H          3.7309348871       -2.3751978263        1.2248522506
 H          7.4964669809       -0.3630970505       -1.2284671721
 H          6.0941783491        0.1695831367       -2.1625218768
 H          6.5838699497        0.4784786069        0.8161742098
 H          6.2327239666        1.7030911623       -0.3972796390
 O          3.9226523146        1.7206341194       -0.3266379473
 C          2.5549002222        1.9296109993       -0.2512028441
 O          2.1760088029        2.9678648709       -0.8226345719
 O          1.7250314952       -1.0171110375        1.6669289439
 C          0.2873584265        1.1299169145        0.5921503785
 C         -0.4201687381        0.5024000176       -0.5817245249
 C         -0.1282440647        0.8945953443       -1.8857470615
 C         -0.7658506050        0.2958545953       -2.9558452960
 C         -1.7087602999       -0.6962942520       -2.7491478117
 C         -2.0040358426       -1.0983638048       -1.4519333958
 C         -1.3628584411       -0.4945505187       -0.3770194235
 H         -1.5801856489       -0.8375020944        0.6233871345
 N         -2.9422518246       -2.1114014983       -1.2213401488
 S         -3.8963245432       -2.1189157884        0.1437092585
 O         -3.1419263832       -2.5548050724        1.2915207978
 O         -5.0266291128       -2.9474471073       -0.2184218696
 C         -4.4396403753       -0.4346683397        0.3756913230
 C         -4.3957080454        0.1166466349        1.6399023054
 C         -4.8517184084        1.4128137786        1.8248758508
 C         -5.3352899694        2.1347860152        0.7450376037
 C         -5.3720822803        1.5675241164       -0.5193868426
 C         -4.9259753588        0.2695824730       -0.7083275944
 H         -4.9532056993       -0.1970561424       -1.6792650846
 H         -5.7462369265        2.1322452273       -1.3578816106
 H         -5.6813967589        3.1456373328        0.8899083456
 H         -4.8208936684        1.8547222014        2.8079080318
 H         -3.9981967825       -0.4748026014        2.4495625329
 H         -3.4281171644       -2.4506845123       -2.0376282552
 H         -2.2029624335       -1.1668877637       -3.5853693574
 H         -0.5292378664        0.6066594313       -3.9622182670
 H          0.6046750841        1.6707238254       -2.0455960931
 H          0.0402515218        0.5283742672        1.4814931229
 C         -0.1540346177        2.5613203829        0.8675616426
 C         -1.0532318145        3.3412163763       -0.0405699701
 C         -1.5740687553        2.8324488023        1.2673171781
 H         -1.7628530843        3.5366252120        2.0630501156
 H         -2.2596398883        1.9985216884        1.2406166725
 H         -0.8550121778        4.3965148422       -0.1479982085
 H         -1.4026923414        2.8693608684       -0.9448391019
 H          0.6127438416        3.1300881172        1.3827740247
