  62
        -98.93557540
 C         -2.2847562517       -1.0907656904       -0.4697274648
 C         -3.5943862933       -1.0631263565        0.0661507683
 C         -4.4385452724        0.0863463254       -0.3010039238
 C         -3.9266049283        1.0574526200       -1.0801921221
 C         -4.5512040457        2.3184322070       -1.6402988189
 C         -5.8750426759        2.8452185659       -1.0924389756
 C         -5.8142409661        3.3558639897        0.3466920211
 H         -5.2167362609        4.2708740526        0.3660866199
 H         -6.8280149056        3.6139629918        0.6605632902
 C         -5.2100278810        2.3914179736        1.3643950223
 H         -5.2279841546        2.8821960150        2.3414401267
 H         -4.1616018721        2.2072729023        1.1193089416
 C         -5.9308389369        1.0520050070        1.5041931757
 H         -5.4985694672        0.5354152409        2.3654127405
 H         -6.9883179182        1.2239036874        1.7138127420
 C         -5.8170178224        0.1083860726        0.2943009877
 H         -6.0168686230       -0.9094550696        0.6414985082
 H         -6.5585846316        0.3462450939       -0.4644321939
 H         -6.6521264064        2.0939545220       -1.1973584946
 H         -6.1608680838        3.6873721764       -1.7285554539
 H         -3.7874981055        3.0964722118       -1.5409120467
 H         -4.6689741585        2.1387048177       -2.7146941714
 O         -2.6487016372        0.9970404451       -1.5570245004
 C         -1.7987000725       -0.0586849445       -1.2697272635
 O         -0.6697384739        0.0449689604       -1.7870597891
 H          1.2191404208       -1.6408480925       -0.7553311090
 C          0.9921660345       -1.4536493532        0.2822175543
 C         -0.2730215171       -1.7349044478        0.7713310754
 C         -0.5497708070       -1.4538703978        2.1068567666
 C          0.4180227193       -0.9078811000        2.9280867705
 C          1.6810542032       -0.6263741932        2.4358611096
 C          1.9631826803       -0.8935767529        1.1035772779
 N          3.2463146700       -0.6193068275        0.5879623466
 S          3.9282577224        0.8770611000        0.9771722776
 O          4.4468689513        0.8042393629        2.3209763814
 O          2.9873090874        1.9461020814        0.7238305604
 C          5.2782088888        0.9378356408       -0.1840142853
 C          5.0778116470        1.5270740542       -1.4179452870
 C          6.1222710932        1.5449023003       -2.3289924267
 C          7.3404868417        0.9728704256       -1.9938077742
 C          7.5257308860        0.3845045581       -0.7515975308
 C          6.4862375681        0.3645032153        0.1646011257
 H          6.5848669294       -0.0730871383        1.1441337431
 H          8.4749364969       -0.0572634120       -0.4947062270
 H          8.1506308892        0.9883873193       -2.7056276119
 H          5.9810328658        2.0032428412       -3.2946504174
 H          4.1160464209        1.9656353612       -1.6339306646
 H          3.2716238189       -0.7542381241       -0.4145748319
 H          2.4412564089       -0.1868071615        3.0609414861
 H          0.1893867808       -0.6943236288        3.9616953359
 H         -1.5415109361       -1.6563942353        2.4874899843
 C         -1.3810618748       -2.2578860821       -0.1084843664
 H         -2.0047568272       -2.9327276670        0.4931542794
 C         -0.8994623665       -3.0014557248       -1.3359287167
 C         -0.2897177244       -4.3614930844       -1.1787041734
 C         -1.6472692747       -4.2154846627       -1.7957556777
 H         -1.7532187675       -4.3825495992       -2.8571616370
 H         -2.5080110182       -4.5195764642       -1.2185403680
 H         -0.2268683240       -4.7642916540       -0.1792364421
 H          0.5378940489       -4.6332355154       -1.8158247516
 H         -0.4992413219       -2.3487430087       -2.1023994053
 O         -4.0479051418       -1.9699143468        0.8143036164
