  62
        -98.93236412
 C          2.3309139182       -0.5217503423        0.4008347056
 C          3.5425036928       -1.0591404602       -0.0977814420
 C          4.5785260573       -0.0873939179       -0.4766429846
 C          4.3127503972        1.2271392729       -0.3676252924
 C          5.2826225232        2.3394839646       -0.6488526753
 C          6.2733843888        2.4846093748        0.5239268195
 C          7.7234381235        2.1559251088        0.1681816376
 H          8.1456604503        2.9856210021       -0.4026815242
 H          8.2812831399        2.0824687282        1.1041512605
 C          7.9376454854        0.8737121281       -0.6418907802
 H          7.7143659898        1.0619260814       -1.6930964092
 H          9.0025330710        0.6376863362       -0.5877468472
 C          7.1376612656       -0.3520548072       -0.1822488950
 H          6.8671526184       -0.2627643924        0.8700403584
 H          7.7805253140       -1.2301364354       -0.2715986682
 C          5.8716118830       -0.6386159978       -1.0112057677
 H          6.0203270540       -0.2912013775       -2.0374627806
 H          5.7179065320       -1.7210862851       -1.0514678596
 H          5.9400100708        1.8348077948        1.3357297457
 H          6.2384042312        3.5061878942        0.9052979059
 H          4.7009052994        3.2534041786       -0.7704069260
 H          5.8135718321        2.1383473141       -1.5766410055
 O          3.1282540993        1.7050665165        0.0929314012
 C          2.1082594559        0.8521262464        0.4893705256
 O          1.0863838639        1.4362178136        0.8953918112
 O          3.7474655049       -2.2969581168       -0.2210660230
 C          1.2237559020       -1.4837609160        0.7988831137
 C          0.0828069795       -1.3225834068       -0.1751515390
 C          0.2298971933       -1.8279308153       -1.4644977347
 C         -0.7706290581       -1.6681521426       -2.4036410653
 C         -1.9355261068       -0.9926283252       -2.0825505512
 C         -2.0906130490       -0.4816107701       -0.8014209098
 C         -1.0905865910       -0.6608288387        0.1477058273
 H         -1.2203766087       -0.2514070657        1.1371254356
 N         -3.2528587624        0.2414452880       -0.4704911607
 S         -4.7455662392       -0.4152853302       -0.9031331821
 O         -4.8556264318       -1.7747508600       -0.4200286670
 O         -4.9340962022       -0.2374579486       -2.3209970178
 C         -5.8503652866        0.6579772906       -0.0085851070
 C         -6.4446810366        0.2136382648        1.1567378641
 C         -7.2831516112        1.0723606101        1.8504679189
 C         -7.5084357029        2.3538105666        1.3711204601
 C         -6.9036373797        2.7854526485        0.1996620046
 C         -6.0656401937        1.9318209856       -0.4994861257
 H         -5.5802338870        2.2210797408       -1.4169071452
 H         -7.0825405206        3.7821647662       -0.1702367377
 H         -8.1612631812        3.0200264573        1.9127353350
 H         -7.7564856225        0.7394037106        2.7601203281
 H         -6.2454895643       -0.7928381910        1.4882648725
 H         -3.2557253982        0.5143758407        0.5032722121
 H         -2.7235122291       -0.8599365709       -2.8059178424
 H         -0.6441678943       -2.0691203236       -3.3983395831
 H          1.1453587652       -2.3437243104       -1.7205183038
 H          1.6478759299       -2.4877953573        0.6600530753
 C          0.8287341637       -1.3181828826        2.2506101890
 C          0.0396557870       -2.3986942004        2.9260604920
 C          1.4778203977       -2.1830858182        3.2874120376
 H          1.7086978019       -1.7487675636        4.2485530391
 H          2.2049019198       -2.9069691187        2.9497773340
 H         -0.7176924341       -2.1163716823        3.6414490915
 H         -0.2127129566       -3.2697849688        2.3402618307
 H          0.6230919556       -0.2897346584        2.5225009474
