  62
        -98.94476676
 C          1.0121633368        1.3372007239        0.3753066921
 C          1.4138110738        0.5826901770       -0.7551256815
 C          2.3288814712       -0.5406400824       -0.4839432053
 C          2.7389756520       -0.7798682832        0.7738706695
 C          3.7196871878       -1.8438922477        1.1728527128
 C          5.1592449878       -1.3108681014        1.1414663954
 C          5.5207178114       -0.5750678316       -0.1487458308
 H          4.9253842780        0.3381241018       -0.2188006947
 H          6.5665150929       -0.2711495662       -0.0674124721
 C          5.3276366898       -1.4021485745       -1.4274901211
 H          6.2017682782       -1.2678407474       -2.0680621489
 H          5.2686235449       -2.4624593434       -1.1788186314
 C          4.1038143949       -1.0093956388       -2.2574977192
 H          4.1117654186        0.0685599467       -2.4380345973
 H          4.1775877917       -1.5035312703       -3.2301022340
 C          2.7445406213       -1.3859588130       -1.6551017905
 H          2.7425798389       -2.4449718213       -1.3857163582
 H          1.9818925323       -1.2311999785       -2.4255988314
 H          5.2898316005       -0.6190701859        1.9766885946
 H          5.8410358197       -2.1508665982        1.2858266805
 H          3.4876531410       -2.1663212488        2.1894699383
 H          3.6205586127       -2.6942947768        0.5006301078
 O          2.3344901960       -0.0345642959        1.8334097837
 C          1.4644264782        1.0279635555        1.6620901563
 O          1.1756704180        1.6225152173        2.7191984884
 O          1.0471495064        0.8108091090       -1.9378641927
 C          0.0699460984        2.5270779957        0.3044157188
 C         -1.3802990997        2.1052929813        0.3477974238
 C         -2.2599420350        2.7239553358        1.2294808957
 C         -3.5968849481        2.3725035111        1.2566046776
 C         -4.0779343034        1.3853282456        0.4161754794
 C         -3.2064145156        0.7554320740       -0.4646117940
 C         -1.8676349936        1.1208028720       -0.5004986807
 H         -1.2116328871        0.6344702128       -1.2052882780
 N         -3.6687086998       -0.2585601063       -1.3209045226
 S         -2.7749031828       -1.6675842146       -1.4431972068
 O         -1.6706581189       -1.4982396271       -2.3492818234
 O         -3.7481992885       -2.6725272091       -1.8190168341
 C         -2.1953609239       -1.9819278840        0.2144750816
 C         -3.1354741001       -2.2509076058        1.1903901382
 C         -2.7094284542       -2.4717852372        2.4892183381
 C         -1.3562106941       -2.4221918318        2.7885139619
 C         -0.4253619341       -2.1584359425        1.7965360272
 C         -0.8466789013       -1.9311634573        0.4957971386
 H         -0.1510948918       -1.7111528217       -0.2992627220
 H          0.6265510847       -2.1174017331        2.0303473384
 H         -1.0211745797       -2.5900252697        3.7998572934
 H         -3.4293302280       -2.6806319040        3.2639186293
 H         -4.1772841636       -2.2976256423        0.9180661614
 H         -4.6519758973       -0.4675781953       -1.2206399787
 H         -5.1195540003        1.1036186503        0.4370736165
 H         -4.2685152881        2.8639239023        1.9435242115
 H         -1.8853229899        3.4802467954        1.9029729549
 H          0.2687992251        3.1147620542        1.2115322724
 C          0.3039616775        3.4214015404       -0.8989304374
 C         -0.0848524280        4.8657872838       -0.8213235531
 C          1.3630319605        4.4784499444       -0.8341949518
 H          1.9467434395        4.6761959158       -1.7206970203
 H          1.9232086135        4.5683816486        0.0855113817
 H         -0.4999847423        5.3333607597       -1.7008610738
 H         -0.5028683691        5.2251419728        0.1066517720
 H          0.1660207949        2.9114791648       -1.8433650168
