  62
        -98.94723870
 C          0.9741646680        1.5293149528       -0.8831258168
 C          2.2920597763        1.4759567695       -0.3594057316
 C          3.0557909934        0.2555445350       -0.6313364129
 C          2.4955464678       -0.7299738544       -1.3544231194
 C          3.1225990004       -2.0572032726       -1.6829741328
 C          2.9654036248       -3.0918780580       -0.5596859109
 C          3.8704174869       -2.8717742606        0.6532722445
 H          4.8992563760       -2.7265840900        0.3206766711
 H          3.8430618903       -3.7904232119        1.2430109006
 C          3.4438752944       -1.7021506985        1.5517700589
 H          3.4878960860       -2.0156190788        2.5980508773
 H          2.4007185232       -1.4462659975        1.3468175705
 C          4.3101716242       -0.4485608306        1.4217504240
 H          5.3199745481       -0.6640441463        1.7799061578
 H          3.8824165336        0.3267870775        2.0626667170
 C          4.4084072016        0.1153487677       -0.0013041382
 H          5.0492332155       -0.5187089410       -0.6138771583
 H          4.8529808166        1.1122045682        0.0572769454
 H          3.1878777808       -4.0749356380       -0.9821145575
 H          1.9236851350       -3.0954125810       -0.2268690269
 H          2.6161723045       -2.4322199664       -2.5750558488
 H          4.1799874800       -1.9234872490       -1.9131473206
 O          1.2560665790       -0.6200531869       -1.8923239962
 C          0.4471106762        0.4797364701       -1.6361438798
 O         -0.6845955231        0.3840583429       -2.1513806941
 H         -1.3080946721        0.5094871935        0.1002410144
 C         -1.2227360300        1.1553742199        0.9585314765
 C         -0.5532485517        2.3649869384        0.8475613499
 C         -0.4821232636        3.1903840037        1.9628571557
 C         -1.0453306038        2.7957805307        3.1643034817
 C         -1.6506978357        1.5577509517        3.2874652026
 C         -1.7285342104        0.7277424126        2.1750301993
 N         -2.2975365798       -0.5527029469        2.2437415536
 S         -1.5844551476       -1.7897940524        1.3587551363
 O         -1.9632084360       -2.9975933506        2.0676024475
 O         -0.1631407328       -1.5871071835        1.1977508908
 C         -2.4220934155       -1.7883913943       -0.2098646328
 C         -1.7670498075       -2.3112461065       -1.3054187058
 C         -2.4316944750       -2.3708017037       -2.5192866098
 C         -3.7338863583       -1.9084930716       -2.6149486180
 C         -4.3790291638       -1.3874333390       -1.5040599260
 C         -3.7213846321       -1.3289968975       -0.2864048880
 H         -4.1896485899       -0.9228928071        0.5948988637
 H         -5.3904832197       -1.0222173574       -1.5839055155
 H         -4.2459526996       -1.9487182673       -3.5635745449
 H         -1.9243324108       -2.7651334239       -3.3851189326
 H         -0.7454822359       -2.6408166624       -1.1966550841
 H         -2.5624236449       -0.8597564184        3.1685226692
 H         -2.0489049423        1.2305789594        4.2357978590
 H         -0.9845066495        3.4457137193        4.0240560135
 H          0.0397764509        4.1331191101        1.8928537247
 C          0.1323936178        2.7197434774       -0.4527054043
 H          0.8457305726        3.5291254739       -0.2441385188
 C         -0.8669885787        3.2096714064       -1.4793951385
 C         -1.3480290619        4.6270763836       -1.4064846147
 C         -0.4318199984        4.2022190911       -2.5137001970
 H         -0.8306018906        4.1099019340       -3.5123824137
 H          0.5949002936        4.5370421503       -2.4835284916
 H         -0.9425141857        5.2558819607       -0.6285293353
 H         -2.3806486116        4.8311184099       -1.6434877572
 H         -1.5745031192        2.4506784578       -1.7854446619
 O          2.8049376098        2.4123531678        0.3123111642
