  62
        -98.94526114
 C          2.3643691252        1.0388465124        0.1380946717
 C          1.9734441533        0.1187530447       -0.8647715479
 C          2.5980818103       -1.2103499122       -0.7885694125
 C          3.4809445338       -1.4708677525        0.1928957073
 C          4.1428473628       -2.7988125726        0.4201481000
 C          3.3227766047       -3.6698162866        1.3825542082
 C          1.8386010430       -3.7550614177        1.0255095301
 H          1.3649234725       -4.4137935561        1.7569961377
 H          1.3871522071       -2.7669354144        1.1445215844
 C          1.5554347600       -4.2738761482       -0.3912471928
 H          0.7485800437       -5.0080552349       -0.3391262468
 H          2.4357437590       -4.7877858116       -0.7787888277
 C          1.1172489843       -3.1965112498       -1.3850948317
 H          0.7408949717       -3.6966923455       -2.2812430848
 H          0.2958124458       -2.6158300908       -0.9581719083
 C          2.2077184278       -2.2163610759       -1.8343812252
 H          3.0814700304       -2.7694892464       -2.1842172320
 H          1.8074129403       -1.6362800436       -2.6708057687
 H          3.7537348113       -4.6724930121        1.3946810604
 H          3.4095752699       -3.2514303846        2.3882304603
 H          5.1282758834       -2.6226313010        0.8546062080
 H          4.2631750820       -3.3075544971       -0.5342095886
 O          3.8344787181       -0.5584552562        1.1347845735
 C          3.2809880475        0.7126441500        1.1364350400
 O          3.6746301346        1.4449114997        2.0677446678
 O          1.1451335342        0.3889128824       -1.7717804579
 C          1.7822648428        2.4395190616        0.1407516171
 C          0.2729224117        2.4020591776        0.1782587236
 C         -0.5180953063        3.2954123868       -0.5335807137
 C         -1.8977594510        3.2418130138       -0.4380458538
 C         -2.5191687593        2.2999631438        0.3605525876
 C         -1.7390259144        1.3945929258        1.0687105546
 C         -0.3559017469        1.4582024273        0.9800951283
 H          0.2490494743        0.7577725781        1.5433709829
 N         -2.3485226396        0.4325798459        1.8881998296
 S         -3.7707301983       -0.3128760382        1.4279244769
 O         -4.8669849199        0.6112536677        1.5805976794
 O         -3.8321031074       -1.5096630267        2.2364961051
 C         -3.5812668833       -0.7459382193       -0.2909339530
 C         -2.7226012939       -1.7791661931       -0.6095391039
 C         -2.5558022905       -2.1267493186       -1.9397252452
 C         -3.2389674255       -1.4309400101       -2.9251612288
 C         -4.0999134897       -0.3982676360       -2.5894291420
 C         -4.2772828557       -0.0520444530       -1.2595582330
 H         -4.9496022648        0.7338549712       -0.9571649098
 H         -4.6337229657        0.1372997770       -3.3578208086
 H         -3.1007714928       -1.6999556111       -3.9603688866
 H         -1.8927589488       -2.9346868332       -2.2038882510
 H         -2.2143288213       -2.3036001117        0.1844543224
 H         -1.7076014286       -0.2223676901        2.3089148155
 H         -3.5910699841        2.2610818629        0.4600386651
 H         -2.4989868062        3.9459414410       -0.9925481963
 H         -0.0535219593        4.0365827177       -1.1626609463
 H          2.1314483078        2.9136877319        1.0704804536
 C          2.3305881016        3.2211754239       -1.0369673794
 C          2.5675585950        4.6966900930       -0.9282303007
 C          3.7296942409        3.7514250876       -0.9591992640
 H          4.3460612921        3.7159807131       -1.8449619480
 H          4.2740530175        3.5759509858       -0.0422908372
 H          2.3892881114        5.3135727490       -1.7962130165
 H          2.3310609816        5.1749394802        0.0103698051
 H          1.9989846898        2.8223878020       -1.9888244126
