  62
        -98.94418699
 C         -2.6499875994       -1.3005470799        0.1584469906
 C         -2.6177622497       -0.2882284298       -0.8306904693
 C         -3.7319811300        0.6709835199       -0.7991164892
 C         -4.7035397899        0.5264679195        0.1203898709
 C         -5.8634423802        1.4616729492        0.2991349210
 C         -5.5333935004        2.5638815192        1.3153514111
 C         -4.1959102206        3.2590482596        1.0599640810
 H         -3.3844715904        2.5435226199        1.2133000809
 H         -4.0838641808        4.0375743196        1.8176680610
 C         -4.0609309509        3.8826885597       -0.3362170090
 H         -3.6299201212        4.8808080699       -0.2336729890
 H         -5.0471216710        4.0001982895       -0.7869423089
 C         -3.1561597008        3.1054890001       -1.2946266291
 H         -2.1948213307        2.9053221303       -0.8131897692
 H         -2.9579337310        3.7388976702       -2.1636660691
 C         -3.7200471404        1.7774155399       -1.8158508491
 H         -3.0668735104        1.4351722902       -2.6241006892
 H         -4.7193290405        1.9373738996       -2.2259603790
 H         -5.5018057202        2.1176816992        2.3119350210
 H         -6.3376091306        3.3015264890        1.2982822312
 H         -6.7157820500        0.8865073589        0.6644695611
 H         -6.1198406004        1.9030992892       -0.6617981489
 O         -4.7121819395       -0.4740042505        1.0375168908
 C         -3.6805264693       -1.3952691102        1.0949996607
 O         -3.7935357690       -2.2386540403        2.0068765607
 O         -1.7119604998       -0.1874689895       -1.7003047794
 C         -1.5274268491       -2.3208278896        0.2526592405
 C         -0.2421489893       -1.5879820292        0.5505528504
 C         -0.1143145493       -0.9465409792        1.7805916704
 C          1.0230816005       -0.2250857089        2.0852495504
 C          2.0569908004       -0.1221719786        1.1694946003
 C          1.9330373805       -0.7443995185       -0.0641998697
 C          0.7935232206       -1.4837009988       -0.3618898997
 H          0.7105273207       -1.9568012388       -1.3273702297
 N          2.9743401204       -0.6561031982       -0.9998174698
 S          3.8004469899        0.7875684921       -1.2006443998
 O          2.9652519796        1.9357171418       -0.9358849696
 O          4.3778797098        0.7033247923       -2.5245025798
 C          5.1083671100        0.6899946724        0.0055745001
 C          5.3353789698        1.7502013524        0.8609787002
 C          6.3653150599        1.6588860027        1.7843994301
 C          7.1470422502        0.5151383729        1.8350660500
 C          6.9084115005       -0.5398089071        0.9668536699
 C          5.8814456404       -0.4540380374        0.0405907500
 H          5.6658421506       -1.2505732674       -0.6516102300
 H          7.5181065507       -1.4279392770        1.0095839898
 H          7.9466009403        0.4455834331        2.5556247899
 H          6.5522085797        2.4785427627        2.4595255501
 H          4.6979217595        2.6174115022        0.7902615503
 H          2.7626854704       -1.0839113482       -1.8894279398
 H          2.9411827502        0.4502211917        1.3967063603
 H          1.1082533504        0.2655194211        3.0431255804
 H         -0.9283007493       -1.0167997495        2.4898021205
 H         -1.7667514288       -2.9544506797        1.1177549405
 C         -1.4774375589       -3.1886976395       -0.9865172696
 C         -0.7711643585       -4.5094643893       -0.9391419997
 C         -2.2670115085       -4.4612954397       -1.0143667896
 H         -2.7478756385       -4.7484875998       -1.9374634596
 H         -2.8346191184       -4.7137450099       -0.1305908396
 H         -0.2247044485       -4.8352792391       -1.8112461298
 H         -0.3200781284       -4.7989208892       -0.0022283797
 H         -1.4307022191       -2.6148877394       -1.9046721695
