  62
        -98.93977726
 C          0.7664432252        1.9027787025        0.3738157208
 C          1.3525672424        0.7993155963        1.0356958708
 C          2.6585390541        0.3309627804        0.5322676930
 C          3.2006104058        0.9522912351       -0.5315921106
 C          4.4843151175        0.6291234345       -1.2494513902
 C          4.3596558416       -0.6099063078       -2.1485634166
 C          3.6788264868       -1.8079324602       -1.4924859906
 H          2.6687875267       -1.5266740556       -1.1890828914
 H          3.5862605529       -2.5891078468       -2.2513687319
 C          4.4235991296       -2.3998009145       -0.2984087543
 H          5.4360527854       -2.6702488020       -0.6061240184
 H          3.9058632936       -3.3198021655       -0.0193407569
 C          4.5134495281       -1.5100856130        0.9447575341
 H          5.3072310533       -0.7738703142        0.8470658714
 H          4.7921165747       -2.1521533108        1.7852562434
 C          3.2098130284       -0.8213388772        1.3363910382
 H          2.4063594179       -1.5639069651        1.3852147460
 H          3.3123455459       -0.4392113689        2.3592206722
 H          3.7754121209       -0.3317084983       -3.0292450579
 H          5.3594007138       -0.8930346250       -2.4829363024
 H          4.7175470808        1.4923970869       -1.8767155745
 H          5.2946213517        0.5086644034       -0.5369863822
 O          2.5835149050        1.9957812962       -1.1566408688
 C          1.3628344252        2.4926010979       -0.7400276026
 O          0.9342631927        3.4382238441       -1.4283431333
 O          0.8086518901        0.2175656785        2.0134560042
 C         -0.5892446955        2.3975280654        0.8496271900
 C         -1.6131392652        2.0114848726       -0.1886650575
 C         -2.2638881076        2.9232803827       -1.0086864855
 C         -3.1483158811        2.4809960380       -1.9773719910
 C         -3.4147718463        1.1332151650       -2.1327675715
 C         -2.7731553602        0.2125253545       -1.3111742384
 C         -1.8749613814        0.6561612730       -0.3553728981
 H         -1.3703921457       -0.0603449144        0.2774390743
 N         -3.0089376255       -1.1651410426       -1.4417773508
 S         -3.1817158304       -2.0916485648       -0.0565234852
 O         -3.9424266365       -3.2458878807       -0.4905309006
 O         -3.7618880063       -1.3263883872        1.0224321170
 C         -1.5423219874       -2.6368551389        0.3658815153
 C         -1.1529095440       -2.6335792551        1.6898607770
 C          0.0872184341       -3.1510156030        2.0257521391
 C          0.9115234867       -3.6604753666        1.0348455501
 C          0.5117736557       -3.6443910751       -0.2931620730
 C         -0.7292116768       -3.1321471230       -0.6342223241
 H         -1.0770412896       -3.1094640961       -1.6537802471
 H          1.1622553883       -4.0314737235       -1.0611650985
 H          1.8714825350       -4.0749439735        1.3016449876
 H          0.4061503085       -3.1466774213        3.0555601481
 H         -1.8205801716       -2.2195617674        2.4285101049
 H         -3.6977030156       -1.4121619948       -2.1379640990
 H         -4.1107074255        0.7920041057       -2.8843385966
 H         -3.6425198922        3.1976904058       -2.6158433381
 H         -2.0670659352        3.9768281019       -0.9004510966
 H         -0.8058182764        1.8239614801        1.7623377314
 C         -0.5735982555        3.8709918278        1.1906130845
 C         -1.6650337871        4.4395219170        2.0459752488
 C         -0.2800597204        4.2913385718        2.5982918211
 H          0.3103276413        5.1812365500        2.7571867519
 H         -0.1001500279        3.5126159289        3.3250877164
 H         -2.0279416712        5.4325204878        1.8287693956
 H         -2.4270923594        3.7594753899        2.3965605284
 H         -0.1744018556        4.4883492233        0.3950090844
