  62
        -98.94609101
 C         -1.4146335397       -0.8572743307       -0.0993031486
 C         -2.4951684197       -0.8518345999        0.8207779814
 C         -3.4426511398        0.2639395200        0.7186699305
 C         -3.2277044598        1.2213550791       -0.2015997904
 C         -4.1314204799        2.3938443689       -0.4489129814
 C         -5.1825381600        2.0702586979       -1.5199052511
 C         -5.9156891999        0.7494393680       -1.2852940599
 H         -6.6522361599        0.6402907673       -2.0841955297
 H         -5.2054571998       -0.0741929220       -1.3871720692
 C         -6.6179258898        0.6463246192        0.0758177202
 H         -6.7378247698        1.6409085896        0.5068497594
 H         -7.6183770598        0.2359844290       -0.0764963893
 C         -5.9133658297       -0.2613021799        1.0858995310
 H         -5.7065827297       -1.2305446003        0.6253773319
 H         -6.5966863397       -0.4349177792        1.9214212312
 C         -4.6040061697        0.2816130507        1.6724143105
 H         -4.7648234198        1.2885125411        2.0637191396
 H         -4.3170603396       -0.3680688685        2.5045609011
 H         -5.9038016700        2.8888591178       -1.5535694318
 H         -4.6824920300        2.0175868670       -2.4897976911
 H         -4.6196489599        2.6713160097        0.4835256684
 H         -3.5198847600        3.2313406186       -0.7899399822
 O         -2.1741456499        1.1987301084       -1.0528689304
 C         -1.2409452498        0.1697191285       -1.0286115396
 O         -0.3418790699        0.3022281878       -1.8811685897
 H          0.8045600502        0.3731538600        0.4846746702
 C          1.2348673703       -0.4359130595        1.0524440709
 C          0.7054015104       -1.7129783196        0.9548137720
 C          1.2661689805       -2.7276190189        1.7238439629
 C          2.3292300805       -2.4659555181        2.5678709326
 C          2.8608245104       -1.1917956479        2.6551307015
 C          2.3058326503       -0.1688270687        1.8948946006
 N          2.8070287602        1.1372190915        1.9843316894
 S          2.8917815301        2.1189000403        0.6316281085
 O          3.8169904501        3.1632207807        1.0213669976
 O          1.5750289201        2.5593283898        0.2481678582
 C          3.6488816301        1.0940538992       -0.6156410606
 C          2.8997173701        0.5271008882       -1.6251871600
 C          3.5340214201       -0.3100922125       -2.5318672393
 C          4.8908232302       -0.5645354423       -2.4154433992
 C          5.6300743702        0.0196084286       -1.3973988797
 C          5.0045315502        0.8541427894       -0.4871839904
 H          5.5440349702        1.3395645801        0.3099022691
 H          6.6869587802       -0.1744779613       -1.3108772296
 H          5.3742712502       -1.2189082529       -3.1236206386
 H          2.9544390401       -0.7582921633       -3.3235603589
 H          1.8432816201        0.7347986381       -1.6983980602
 H          3.6280312903        1.2361536720        2.5632985593
 H          3.6885246804       -0.9836430373        3.3154605913
 H          2.7502661506       -3.2607225175        3.1641944133
 H          0.8524672205       -3.7228595989        1.6693287038
 C         -0.4435459696       -2.0163519805        0.0185865624
 H         -1.0238181396       -2.8343086501        0.4693892231
 C          0.1078952503       -2.4969370416       -1.3108228272
 C          0.4627341204       -3.9405220818       -1.4957210160
 C         -0.7369718197       -3.3689671125       -2.1886031664
 H         -0.7010195197       -3.2119394934       -3.2559149866
 H         -1.7159687096       -3.6436227922       -1.8229355661
 H          0.2903049505       -4.6146883811       -0.6710616453
 H          1.3319270804       -4.1822704823       -2.0873147558
 H          0.7310473603       -1.7603286720       -1.8002786479
 O         -2.6609311896       -1.7530133591        1.6875906322
