  62
        -98.93395878
 C          1.2574327523        1.7456084340       -0.4343344775
 C          1.1920395071        0.3614954009       -0.7352251539
 C          2.4134053096       -0.4374077762       -0.4929625362
 C          3.5289858634        0.1582054940       -0.0390489882
 C          4.9168192169       -0.3769830484        0.2486440383
 C          5.1874906146       -1.8785171445        0.2430468364
 C          4.5574799619       -2.6438002025        1.4090857317
 H          4.6510742459       -3.7139147198        1.2132242830
 H          5.1287357584       -2.4209722325        2.3138568278
 C          3.0955586764       -2.3170119357        1.7067189074
 H          2.8035430754       -2.8632060402        2.6082600250
 H          2.9938444768       -1.2541697327        1.9361453266
 C          2.0974138886       -2.6795462662        0.6095815364
 H          2.1518089026       -3.7512125254        0.4031638882
 H          1.0984465561       -2.4559153563        0.9976747633
 C          2.2683728896       -1.9160737548       -0.7119903701
 H          3.0981652164       -2.3129655742       -1.2909116599
 H          1.3564306124       -2.0525498116       -1.3004492538
 H          6.2713651730       -2.0015750012        0.3171590760
 H          4.8885556898       -2.3067485855       -0.7093032770
 H          5.5720459931        0.0965959039       -0.4908498638
 H          5.2039021396        0.0366443729        1.2208475199
 O          3.5612047260        1.5006952039        0.2065467257
 C          2.4480148596        2.3009260116        0.0545561579
 O          2.6478570775        3.4908928064        0.3778250575
 H         -1.3865578472        0.5203858108       -0.1173770294
 C         -1.6546638538        1.3184344896        0.5519753154
 C         -0.9742630814        2.5241932771        0.4863388004
 C         -1.3343784620        3.5392326393        1.3678141625
 C         -2.3427600500        3.3439222391        2.2943746814
 C         -2.9997979536        2.1285785074        2.3740559221
 C         -2.6455324588        1.1085843166        1.4996517173
 N         -3.2900758952       -0.1374733063        1.5321911192
 S         -2.3890399493       -1.5362706988        1.3115685978
 O         -3.1893930179       -2.5746897845        1.9345527025
 O         -1.0522888048       -1.3944684513        1.8417904367
 C         -2.3712945301       -1.8420296870       -0.4418632715
 C         -3.2074736836       -1.1465168531       -1.2895939160
 C         -3.1799386989       -1.4419430254       -2.6434133945
 C         -2.3292158139       -2.4248796331       -3.1223489423
 C         -1.5039436655       -3.1219674057       -2.2546314913
 C         -1.5253215505       -2.8303049361       -0.9010043942
 H         -0.8899574389       -3.3410188574       -0.1947591065
 H         -0.8377215197       -3.8840436986       -2.6272913842
 H         -2.3035868304       -2.6447897325       -4.1782144502
 H         -3.8170050671       -0.8964430955       -3.3212157830
 H         -3.8490701831       -0.3769499358       -0.8931735745
 H         -3.9659973625       -0.2535105868        2.2730604405
 H         -3.7759062850        1.9691291298        3.1074755273
 H         -2.6118734632        4.1410339209        2.9710115582
 H         -0.8083551802        4.4826014837        1.3299071316
 C          0.1193067348        2.7555953244       -0.5322690487
 H          0.6061021113        3.7046823803       -0.2584377569
 C         -0.4976934491        3.0135047115       -1.9047730953
 C          0.2359499733        2.7358228156       -3.1809541211
 C         -1.0076347077        1.9680085487       -2.8466872853
 H         -1.9088589645        2.1908032109       -3.3990860892
 H         -0.9000132166        0.9334851604       -2.5677024557
 H          0.2050414972        3.4748610663       -3.9679858003
 H          1.1804863456        2.2159496874       -3.1046877521
 H         -1.0718535031        3.9365075894       -1.8834602291
 O          0.1856191583       -0.2292459975       -1.2044809312
