  62
        -98.94430313
 C         -1.8302686298       -1.0825816399       -0.1428765899
 C         -2.3208444096        0.0487763203       -0.8378878898
 C         -3.7841918796        0.1879683305       -0.8773857797
 C         -4.5531223598       -0.7487094994       -0.2927251998
 C         -6.0507644098       -0.6992388792       -0.2096166898
 C         -6.5107798796        0.0025740108        1.0760063703
 C         -5.8189031494        1.3418802806        1.3302977904
 H         -6.2424930393        1.7577180506        2.2470562705
 H         -4.7571583094        1.1659139504        1.5176629404
 C         -5.9677782392        2.3599644408        0.1911139806
 H         -6.7968968393        2.0729054010       -0.4566540595
 H         -6.2142470191        3.3331205708        0.6209640407
 C         -4.7081738092        2.5538768007       -0.6553749894
 H         -3.8531734292        2.7509233604       -0.0033377094
 H         -4.8518893791        3.4385195808       -1.2816101093
 C         -4.3439376494        1.3895170607       -1.5851457996
 H         -3.5526928894        1.7361395607       -2.2566248996
 H         -5.2110732995        1.1145997809       -2.1892067696
 H         -6.3034682797       -0.6558579994        1.9226925002
 H         -7.5902337496        0.1537969509        1.0195548003
 H         -6.4409320197       -0.1772993290       -1.0811180598
 H         -6.4296889499       -1.7225889991       -0.2101196899
 O         -4.0442067200       -1.8350684696        0.3427328800
 C         -2.6755592000       -2.0225898998        0.4463108800
 O         -2.3411552601       -3.0445172499        1.0788721898
 O         -1.5796257895        0.9003340502       -1.3948845997
 C         -0.3326333899       -1.3103873801       -0.0312061800
 C          0.3202838803       -0.1060189803        0.6003677302
 C         -0.1908289796        0.3680026096        1.8070533902
 C          0.3512095506        1.4814262194        2.4168583704
 C          1.4253559807        2.1399110993        1.8436560004
 C          1.9494269006        1.6701561394        0.6459978804
 C          1.4041526804        0.5467639195        0.0358182502
 H          1.8183598404        0.2172332496       -0.9020494998
 N          3.0311120907        2.3245306193        0.0439982904
 S          4.1708273906        1.4909430692       -0.8374406597
 O          5.3353021007        2.3511054690       -0.8166452496
 O          3.6656052805        1.1555761894       -2.1447747697
 C          4.5071435304       -0.0008425510        0.0837644901
 C          4.7173037504        0.0827331088        1.4461337701
 C          4.9901699202       -1.0763595013        2.1540604400
 C          5.0543268600       -2.2930571112        1.4921104198
 C          4.8506402700       -2.3594754510        0.1229292198
 C          4.5737836201       -1.2031602709       -0.5889345000
 H          4.4025944501       -1.2096358207       -1.6531037700
 H          4.9028474898       -3.3051794410       -0.3925815603
 H          5.2651554998       -3.1941980314        2.0461259397
 H          5.1508031502       -1.0279321615        3.2190027800
 H          4.6682644206        1.0408444688        1.9368584203
 H          3.4292317009        3.0863776491        0.5715322705
 H          1.8452153709        3.0171465792        2.3117518305
 H         -0.0631424593        1.8413015294        3.3465856504
 H         -1.0318836196       -0.1463594403        2.2525547202
 H         -0.2049622600       -2.1656001903        0.6484488299
 C          0.2347164801       -1.6786216601       -1.3855248300
 C          1.4469841499       -2.5526859903       -1.4843120301
 C          0.1008297298       -3.0937212500       -1.8593555502
 H         -0.1143123102       -3.2707262198       -2.9025151902
 H         -0.3763386803       -3.7948390600       -1.1899932403
 H          2.1553623399       -2.3552495903       -2.2745192401
 H          1.8940741499       -2.8933733305       -0.5627690102
 H          0.1099646802       -0.8914510500       -2.1208896599
