  62
        -98.93137289
 C          2.0537199901        0.7783751709        0.5765478898
 C          3.1527054799        0.8231741307       -0.3120359204
 C          4.1408867999       -0.2700141293       -0.2004002805
 C          3.9288108900       -1.2635739092        0.6796497896
 C          4.7814716399       -2.4723883393        0.9740982896
 C          5.3931480097       -3.2054972494       -0.2295886605
 C          6.9062060397       -3.0159254095       -0.3549209008
 H          7.3427014199       -3.0421217295        0.6456865992
 H          7.3183778195       -3.8601861196       -0.9120565408
 C          7.3458659096       -1.7360539696       -1.0636288409
 H          7.1279013695       -1.8202409296       -2.1303991909
 H          8.4303662297       -1.6559922396       -0.9585302211
 C          6.7059463898       -0.4488101795       -0.5407672409
 H          6.6492909200       -0.4654572894        0.5471143691
 H          7.3581014598        0.3836234404       -0.8132076211
 C          5.3167819997       -0.1690758695       -1.1338306507
 H          5.2792235397        0.8557803305       -1.5153661508
 H          5.1404806295       -0.8171868795       -1.9966818306
 H          4.8928832496       -2.8959430494       -1.1456788504
 H          5.1982940696       -4.2715028194       -0.1007499304
 H          5.5726016201       -2.1742938793        1.6671171194
 H          4.1255199800       -3.1495485192        1.5262589497
 O          2.8383025601       -1.2810655691        1.5010397298
 C          1.8976077302       -0.2710579690        1.4859331999
 O          0.9832744203       -0.4133139289        2.3243535801
 H         -1.5726051999        0.9744551711        0.8261747904
 C         -1.3068943700        1.1864837910       -0.1990722097
 C         -0.0286584200        1.6338982309       -0.5032278999
 C          0.2980213398        1.8779962608       -1.8332551000
 C         -0.6379220504        1.6726159908       -2.8300648298
 C         -1.9099893404        1.2227212609       -2.5242182496
 C         -2.2476461902        0.9786875510       -1.1979186595
 N         -3.5483878202        0.5633823811       -0.8603649392
 S         -3.7573401500       -0.5272026487        0.4118549909
 O         -3.6494225698        0.1864420313        1.6588877208
 O         -2.8873713501       -1.6691160088        0.2345619408
 C         -5.4576299601       -0.9931705387        0.1410985012
 C         -5.7473107103       -2.1746971687       -0.5144173486
 C         -7.0736761503       -2.5076119286       -0.7417366984
 C         -8.0818978302       -1.6565433485       -0.3149665483
 C         -7.7756534000       -0.4742323785        0.3426219116
 C         -6.4519635200       -0.1362341586        0.5742804713
 H         -6.1651407198        0.7659346815        1.0887834012
 H         -8.5621683299        0.1835860016        0.6755362817
 H         -9.1130077103       -1.9179632685       -0.4930058781
 H         -7.3146745305       -3.4279225786       -1.2489579183
 H         -4.9304516304       -2.8088371088       -0.8199348687
 H         -4.0816461203        0.2755239411       -1.6703291691
 H         -2.6381857206        1.0625579409       -3.3050134594
 H         -0.3718383006        1.8601781507       -3.8594230199
 H          1.2967039697        2.2040137807       -2.0776486402
 C          0.9674966002        1.8425469910        0.6129551799
 H          0.4345305403        1.6815139511        1.5605421200
 C          1.5159823603        3.2563822009        0.6082344897
 C          0.6377233704        4.3702163510        1.0892839698
 C          1.8104262905        3.9305571110        1.9125151796
 H          2.6716948906        4.5786396409        1.9741844594
 H          1.6179756606        3.3725983811        2.8179327797
 H         -0.3511617295        4.1095324011        1.4367309900
 H          0.6913071004        5.3229195810        0.5855039497
 H          2.1845262201        3.4587196008       -0.2173773204
 O          3.3348478399        1.7309016907       -1.1658880105
