  62
        -98.94738877
 C         -2.5400610703       -0.2217038714       -0.0193526873
 C         -2.2439656620       -1.2365831942       -0.9591948318
 C         -1.6894634906       -2.4778753803       -0.4094092781
 C         -1.5033467003       -2.5939156289        0.9181709105
 C         -0.9768183539       -3.8069067684        1.6369177693
 C          0.5548469438       -3.8941516607        1.6658610563
 C          1.2031621671       -4.2921372732        0.3395632915
 H          2.2415687441       -4.5524897955        0.5535945232
 H          0.7150771697       -5.1853955319       -0.0523365983
 C          1.1846993458       -3.1832047439       -0.7209944701
 H          1.0032652691       -2.2181417662       -0.2416523116
 H          2.1669284668       -3.1097942542       -1.1952070847
 C          0.1638279114       -3.3781181111       -1.8423884132
 H          0.4400669708       -4.2482596361       -2.4433590834
 H          0.2073061204       -2.4940340859       -2.4846929898
 C         -1.2845984971       -3.5560662544       -1.3690293724
 H         -1.9393322567       -3.4853710801       -2.2415749522
 H         -1.4121738302       -4.5382615496       -0.9133994956
 H          0.9510949364       -2.9264745735        1.9836419291
 H          0.8267222561       -4.6362047383        2.4203644123
 H         -1.3383329341       -3.7370322492        2.6651597274
 H         -1.3872785618       -4.7097059139        1.1831836048
 O         -1.8132025143       -1.5996095113        1.7912119443
 C         -2.2902205423       -0.3780165055        1.3439307373
 O         -2.4736512179        0.4618885469        2.2469462092
 O         -2.4418525527       -1.1122632891       -2.1995561529
 C         -3.0248433304        1.1302170364       -0.5153254055
 C         -1.9906925447        2.1655332205       -0.1452084165
 C         -2.2774060483        3.3655584499        0.4906252502
 C         -1.2515883998        4.2174501542        0.8650549928
 C          0.0702706679        3.8866665728        0.6318209309
 C          0.3650737399        2.6973012741       -0.0267211252
 C         -0.6646230824        1.8671984834       -0.4322598767
 H         -0.4273631587        0.9458696557       -0.9446922102
 N          1.6933390399        2.3221742701       -0.2987001559
 S          2.0385317689        0.6662696588       -0.3150257041
 O          1.7135563281        0.1482903141       -1.6200046385
 O          1.4274869214        0.0121415683        0.8202926687
 C          3.8111703583        0.7077018375       -0.1260676681
 C          4.3748332973        0.4400481819        1.1066016034
 C          5.7531014723        0.5046678438        1.2419944753
 C          6.5389712822        0.8375669953        0.1490939463
 C          5.9587216557        1.1022374385       -1.0828317145
 C          4.5819841488        1.0369476031       -1.2253834593
 H          4.0857444021        1.2231260639       -2.1634788688
 H          6.5729639810        1.3576788377       -1.9310541970
 H          7.6108111326        0.8883014299        0.2574315430
 H          6.2065201614        0.2952529095        2.1974102449
 H          3.7229567616        0.1798438660        1.9253428487
 H          2.3668240542        2.8406440327        0.2488838726
 H          0.8679386185        4.5374343096        0.9563238771
 H         -1.4856007385        5.1433101119        1.3685029878
 H         -3.2997491438        3.6251664716        0.7114290652
 H         -3.0585086470        1.0467233084       -1.6121908126
 C         -4.4139012224        1.4410177738       -0.0022775577
 C         -5.3164385956        2.3512279321       -0.7793113246
 C         -5.5979644502        0.8805229559       -0.7294782147
 H         -6.4406871197        0.5335508043       -0.1508089297
 H         -5.4014675754        0.2895473771       -1.6121962201
 H         -5.9710482808        3.0153009706       -0.2355449551
 H         -4.9354057099        2.7624857938       -1.7017928438
 H         -4.4586183657        1.4718644775        1.0805015859
