  62
        -98.94008915
 C         -2.2432281748       -0.9365225875        0.4313210394
 C         -2.3383104216        0.1007543463       -0.5295344328
 C         -3.2721634403        1.1909842285       -0.2021547460
 C         -3.9090588341        1.1870802109        0.9820230647
 C         -4.9272374771        2.2008690132        1.4148267580
 C         -6.3461868669        1.7620583007        1.0261148980
 C         -6.4789283517        1.3187230834       -0.4309328653
 H         -5.8976995218        0.4059036114       -0.5807426528
 H         -7.5272043167        1.0619279916       -0.5979575581
 C         -6.0400704202        2.3720203233       -1.4578215604
 H         -6.0107029574        3.3563605797       -0.9892013246
 H         -6.7850039661        2.4146624059       -2.2551072122
 C         -4.6920631081        2.0866996331       -2.1226654354
 H         -4.5829383136        2.7636298716       -2.9740202696
 H         -4.6862407345        1.0661905390       -2.5139282883
 C         -3.4565963376        2.2698347186       -1.2320023149
 H         -2.5722199369        2.2231791821       -1.8743490378
 H         -3.4865331876        3.2535449732       -0.7591722934
 H         -6.6377527362        0.9261937808        1.6665277305
 H         -7.0285918933        2.5916348368        1.2196464086
 H         -4.8721179825        2.3024738452        2.5000999444
 H         -4.6942328353        3.1605601806        0.9575625286
 O         -3.7237380363        0.2189086021        1.9167463834
 C         -2.8966705665       -0.8632978289        1.6636866874
 O         -2.8143320235       -1.6748730907        2.6083377532
 H          0.2670252672       -0.4251766145        1.4028239759
 C          0.7165873553       -0.7980428998        0.4890390564
 C          0.0063058782       -1.7061801255       -0.2879677119
 C          0.5947038416       -2.1805056171       -1.4521169321
 C          1.8540393855       -1.7453056486       -1.8276211108
 C          2.5507561058       -0.8330544995       -1.0577131838
 C          1.9728174307       -0.3532163292        0.1105914903
 N          2.6727120973        0.5851211190        0.8941152927
 S          4.2070762145        0.1505335609        1.4258685132
 O          4.3271457111       -1.2821354933        1.5718826046
 O          4.4331434800        0.9389804486        2.6180270153
 C          5.2915216258        0.7248780806        0.1362403679
 C          5.2762872011        2.0699231332       -0.1771064815
 C          6.1204851997        2.5339912249       -1.1731723199
 C          6.9627461958        1.6510437577       -1.8327332302
 C          6.9684674385        0.3041370035       -1.5038785289
 C          6.1256023949       -0.1669197757       -0.5091520920
 H          6.0913918886       -1.2058246895       -0.2224361544
 H          7.6242321275       -0.3804452038       -2.0174122226
 H          7.6187629906        2.0153387342       -2.6075041304
 H          6.1188209282        3.5806862504       -1.4316275020
 H          4.6100995382        2.7224466031        0.3623092813
 H          2.1299914103        0.9478252196        1.6647956040
 H          3.5275227920       -0.4854673001       -1.3521683590
 H          2.2964019204       -2.1181751206       -2.7387982604
 H          0.0603703660       -2.8760575486       -2.0778113936
 C         -1.3497145618       -2.1446681346        0.2104808910
 H         -1.2050239083       -2.5762565761        1.2156192172
 C         -1.9830235628       -3.2372659059       -0.6388145386
 C         -3.4723322692       -3.3912213592       -0.7135025961
 C         -2.7043778727       -2.9421066246       -1.9182483852
 H         -2.5934304614       -3.6346746623       -2.7398102821
 H         -2.7757405456       -1.9104656571       -2.2230456338
 H         -4.0775035059       -2.6655516728       -0.1890204612
 H         -3.8851158703       -4.3888990739       -0.7048348118
 H         -1.4098397299       -4.1586767633       -0.6028573016
 O         -1.6877219826        0.1269914333       -1.6047567548
