  62
        -98.94102507
 C         -2.5640714732       -0.2255675222        0.5138641284
 C         -2.2447709946        0.3289769520       -0.7505124182
 C         -2.0794079677        1.7899724088       -0.7882433599
 C         -2.2336522263        2.5053904137        0.3391387577
 C         -2.1014988877        3.9974307731        0.4389539618
 C         -0.6795406026        4.4243180469        0.8245236501
 C          0.4195429426        3.7792145483       -0.0200491774
 H          1.3686876328        4.2154371934        0.3009692900
 H          0.4735985247        2.7111385581        0.2037392890
 C          0.2594419126        3.9679330181       -1.5348384552
 H          1.2350595013        4.2185519631       -1.9563938237
 H         -0.4079869993        4.8066800934       -1.7386096616
 C         -0.2394821851        2.7243226794       -2.2740858164
 H         -0.0479438314        2.8602775195       -3.3420707644
 H          0.3316872566        1.8538105523       -1.9398882388
 C         -1.7321009400        2.4078391559       -2.1127499984
 H         -2.3240023792        3.3087851889       -2.2894730450
 H         -2.0009279151        1.6643848089       -2.8689347188
 H         -0.5074383660        4.1542960659        1.8693174756
 H         -0.6151378890        5.5112741662        0.7391847149
 H         -2.3779629993        4.4411589042       -0.5157965200
 H         -2.7944352625        4.3486626827        1.2062329113
 O         -2.5203036885        1.9373242002        1.5401247046
 C         -2.6511368162        0.5638096450        1.6614388523
 O         -2.8513977365        0.1714981747        2.8307478065
 H         -0.1429842513       -1.0822317709        0.8515817348
 C         -0.2822629536       -1.9349214941        0.2015062404
 C         -1.5654973923       -2.4306234302        0.0001895843
 C         -1.7252538945       -3.5395236229       -0.8183332521
 C         -0.6245020216       -4.1226096280       -1.4246953811
 C          0.6440851758       -3.6049157380       -1.2491923064
 C          0.8123543867       -2.4836890863       -0.4407268755
 N          2.0780677077       -1.8872421161       -0.3109426648
 S          2.3341219717       -0.5633179618        0.6829454389
 O          2.1836959843       -0.9272995951        2.0777148756
 O          1.5313267966        0.5363260596        0.2146866215
 C          4.0530538938       -0.2544717406        0.3273990190
 C          5.0249237089       -0.8200324409        1.1309637775
 C          6.3590961139       -0.5983110709        0.8277767736
 C          6.6972111442        0.1799765329       -0.2690637146
 C          5.7109221151        0.7436145386       -1.0648616658
 C          4.3752275929        0.5254342416       -0.7667457889
 H          3.5736664514        0.9484118697       -1.3500713451
 H          5.9767273815        1.3515805422       -1.9145063730
 H          7.7359697662        0.3514712846       -0.5030420985
 H          7.1278436468       -1.0315599273        1.4470685074
 H          4.7148533806       -1.4071002511        1.9805124700
 H          2.8555105834       -2.5296265817       -0.3395468005
 H          1.4959207571       -4.0480311884       -1.7409086758
 H         -0.7613890013       -4.9877247690       -2.0558377469
 H         -2.7095437754       -3.9395306054       -0.9980084330
 C         -2.6966904779       -1.7266056024        0.7114736003
 H         -2.5520060618       -1.8811215101        1.7951134726
 C         -4.0705896751       -2.2874053430        0.3729591842
 C         -5.2832153415       -1.4066565982        0.3437936973
 C         -4.7504150258       -1.9900200232       -0.9284994107
 H         -5.3147708620       -2.7787307506       -1.4041607141
 H         -4.2348069802       -1.3401896712       -1.6173005241
 H         -6.2067473454       -1.7962828676        0.7454009149
 H         -5.1397441169       -0.3508538929        0.5241782612
 H         -4.2160418089       -3.2816070874        0.7843311345
 O         -2.1170690520       -0.3481862934       -1.8033290523
