  62
        -98.93867921
 C          0.8735569169        1.7435620273        0.0326028235
 C          1.6512317083        1.1235474392        1.0365112342
 C          2.7046373602        0.1971726132        0.5848876857
 C          2.8294148669       -0.0525133448       -0.7310860450
 C          3.8525834972       -0.9102237290       -1.4320866279
 C          4.1461732466       -2.2838887217       -0.8086950487
 C          5.5356706665       -2.3780266592       -0.1756677422
 H          5.8387302831       -3.4271205964       -0.1501970997
 H          6.2471108946       -1.8500530586       -0.8140525715
 C          5.6361053639       -1.8349977825        1.2488587245
 H          5.1236258848       -2.5154582198        1.9324223136
 H          6.6925689179       -1.8311181041        1.5275849421
 C          5.0707009608       -0.4282634084        1.4556907526
 H          5.3381554456        0.2182557896        0.6206631648
 H          5.5427683274       -0.0073786187        2.3461304711
 C          3.5502051579       -0.4009762984        1.6761166356
 H          3.1865205698       -1.4095824771        1.8922722115
 H          3.3204971786        0.1969792753        2.5636060528
 H          3.3810118780       -2.5272619045       -0.0737706482
 H          4.0892795576       -3.0320673543       -1.6010378117
 H          3.4765428209       -1.0310647072       -2.4503591425
 H          4.7796035666       -0.3371813008       -1.5138145806
 O          2.0046269922        0.5094847373       -1.6582218162
 C          1.0118003575        1.4100667481       -1.3141813508
 O          0.3418054099        1.8257958143       -2.2765970800
 O          1.4802827112        1.3429778627        2.2677778453
 C         -0.1796012332        2.7575063844        0.4474164919
 C         -1.5471230073        2.1684952544        0.2099299298
 C         -2.4650206907        2.6773036874       -0.6979243795
 C         -3.6851417361        2.0488915246       -0.8872948314
 C         -4.0179095303        0.9117094964       -0.1744280827
 C         -3.1056675662        0.3971735146        0.7388932931
 C         -1.8843498338        1.0237591207        0.9241335627
 H         -1.1716687386        0.6201767562        1.6326529908
 N         -3.4324972334       -0.7732719126        1.4622090638
 S         -3.5334978660       -2.1799967607        0.5594347883
 O         -4.5978749527       -2.0389419871       -0.3999559725
 O         -3.6710751359       -3.2516118337        1.5187412632
 C         -1.9643320636       -2.3120370599       -0.2782810675
 C         -0.9932260629       -3.1395674959        0.2491436807
 C          0.2373534158       -3.2145683989       -0.3821837349
 C          0.4784036233       -2.4535033809       -1.5154368009
 C         -0.5013277705       -1.6153789505       -2.0240576799
 C         -1.7374942588       -1.5428997739       -1.4024125213
 H         -2.5220922618       -0.9071393924       -1.7793660034
 H         -0.3037762621       -1.0049585348       -2.8912411866
 H          1.4357961195       -2.5111322513       -2.0070918130
 H          1.0031970353       -3.8655985384        0.0084739920
 H         -1.2255955907       -3.7165774136        1.1300180969
 H         -2.8140375414       -0.9341304443        2.2456945155
 H         -4.9560150797        0.4024324851       -0.3236787620
 H         -4.3873616942        2.4520664381       -1.6011843159
 H         -2.2224836801        3.5589998615       -1.2672766516
 H         -0.0515347083        2.8801670185        1.5325732279
 C          0.0446019205        4.0946199998       -0.2237560029
 C         -0.5464443589        5.3335670676        0.3775458793
 C          0.9326246948        5.1020986995        0.4404684403
 H          1.5775331515        5.7077675604       -0.1783162678
 H          1.3689147430        4.8332333940        1.3915184004
 H         -0.9176403659        6.1021245502       -0.2830986506
 H         -1.1163436155        5.2229623743        1.2876916898
 H          0.0949930227        4.0239493826       -1.3036626760
