  62
        -98.93889341
 C         -2.0873122704       -0.9289322557       -0.4292660061
 C         -3.1339972139       -1.1766353385        0.4901915280
 C         -4.4085541791       -0.4800908719        0.2478435766
 C         -4.5109719565        0.3633568430       -0.7963472067
 C         -5.6805340993        1.1806301937       -1.3041485877
 C         -6.9105212028        1.4128982811       -0.4301797631
 C         -6.6638399020        2.2736251842        0.8082641512
 H         -6.4536134445        3.2963015644        0.4848795404
 H         -7.5832320925        2.2939561659        1.3976281338
 C         -5.5101722064        1.8276595083        1.7033026165
 H         -5.4524384073        2.5235047322        2.5447850696
 H         -4.5683570670        1.9086514738        1.1563007433
 C         -5.6334898499        0.4165075321        2.2749160175
 H         -6.5900969103        0.3107876120        2.7901881355
 H         -4.8389291447        0.2920462632        3.0154476792
 C         -5.4959290057       -0.7263129515        1.2536767429
 H         -5.2114604838       -1.6316459327        1.7976677869
 H         -6.4408692434       -0.9284710635        0.7552160246
 H         -7.6400867580        1.9360273720       -1.0544933335
 H         -7.3594141027        0.4643614831       -0.1506452622
 H         -5.2606323263        2.1488309407       -1.5951398112
 H         -6.0029201052        0.6944045416       -2.2316795003
 O         -3.4698181958        0.5759603241       -1.6532944697
 C         -2.2421107505       -0.0478324382       -1.4974828183
 O         -1.4021281099        0.2610594505       -2.3639586501
 O         -3.0131405560       -1.9562447426        1.4725869574
 C         -0.7516654592       -1.6188443345       -0.2076968898
 C          0.2685217937       -0.5706855007        0.1601454113
 C          0.2263098547       -0.0134678204        1.4359443383
 C          1.1089470428        0.9846080309        1.8018435017
 C          2.0522625161        1.4513274284        0.9027021200
 C          2.1033137810        0.9012766900       -0.3709069955
 C          1.2244823643       -0.1127104047       -0.7323844028
 H          1.2684732718       -0.5190816583       -1.7301855175
 N          3.0557381903        1.3711562626       -1.2887252278
 S          4.6229734696        1.6128973293       -0.7629677551
 O          4.7162733789        2.8699023896       -0.0624798648
 O          5.4437637631        1.4879428385       -1.9468999288
 C          4.9450569284        0.2685924925        0.3654530047
 C          5.1941135119        0.5289591682        1.6973538838
 C          5.4073179080       -0.5345886957        2.5599413652
 C          5.3649766503       -1.8334276546        2.0781084162
 C          5.1171200219       -2.0787791009        0.7359604710
 C          4.9034715526       -1.0195462141       -0.1306213033
 H          4.7147047278       -1.1752789806       -1.1805824102
 H          5.0865564430       -3.0900203614        0.3631758055
 H          5.5272437312       -2.6603934488        2.7512750467
 H          5.6021860874       -0.3466116406        3.6034965925
 H          5.2184101579        1.5537914436        2.0302157641
 H          3.0225846995        0.9172643020       -2.1889538600
 H          2.7359599320        2.2430442050        1.1626027301
 H          1.0614725605        1.4083826409        2.7934309106
 H         -0.5196363660       -0.3686054783        2.1333407477
 H         -0.9038324266       -2.2676309874        0.6655977426
 C         -0.3601681823       -2.4780991501       -1.3905711732
 C          0.6976470458       -3.5260635728       -1.2197871940
 C         -0.7352638450       -3.9285062617       -1.3941563098
 H         -1.0363188217       -4.3792774487       -2.3280352690
 H         -1.2694220929       -4.3079904315       -0.5355437806
 H          1.3834818838       -3.7062194499       -2.0335118849
 H          1.1363454908       -3.6318770279       -0.2393692714
 H         -0.4126324170       -1.9531028372       -2.3370234942
