  62
        -98.93895244
 C         -0.9978449007       -1.5101195192        0.2147623106
 C         -1.3965806600       -0.2725527588        0.7692083999
 C         -2.5026866895        0.4382461217        0.0986803894
 C         -3.0298499596       -0.0950718085       -1.0191830504
 C         -4.1642347491        0.4244021619       -1.8635295009
 C         -5.5396065994        0.2042251230       -1.2169478410
 C         -5.6222233194        0.5968977137        0.2551297588
 H         -6.6194874396        0.3290550345        0.6141724687
 H         -4.9037385699        0.0042974535        0.8237856092
 C         -5.4022172685        2.0801372537        0.5444549682
 H         -6.1170881980        2.6683784339       -0.0348990222
 H         -5.6248277686        2.2378916243        1.6028188181
 C         -3.9919906681        2.6134705227        0.2749554382
 H         -3.8402507978        2.8196178521       -0.7810211618
 H         -3.9038686876        3.5713813928        0.7950553878
 C         -2.8696105588        1.7238804022        0.7985664588
 H         -1.9415816784        2.3051586816        0.8288738387
 H         -3.0763836991        1.4581932828        1.8416778689
 H         -5.7864217500       -0.8575234569       -1.2952710606
 H         -6.2813374189        0.7651368732       -1.7884209114
 H         -4.0124588484        1.4747324617       -2.0927518513
 H         -4.1301866493       -0.1302565086       -2.8039191106
 O         -2.5812338302       -1.2723630490       -1.5428592498
 C         -1.5681503608       -2.0072239494       -0.9565411693
 O         -1.2790902914       -3.0557183598       -1.5636601388
 H          1.5203116302       -0.0973276908        0.2875895804
 C          1.9250618997       -0.9572053313       -0.2276026292
 C          1.3421729189       -2.2039643508       -0.0290589387
 C          1.8683326983       -3.3013798215       -0.6968009382
 C          2.9483406186       -3.1464440825       -1.5486822880
 C          3.5340408594       -1.9078656030       -1.7332737085
 C          3.0184618900       -0.8034290223       -1.0630881990
 N          3.5799431508        0.4714651872       -1.2319807195
 S          3.7370097912        1.4821713177        0.0933039601
 O          4.7959304919        2.3982837669       -0.2794402901
 O          3.9535771305        0.7347927081        1.3100436805
 C          2.2155550718        2.4001458487        0.1747333794
 C          1.6634726117        2.6801505296        1.4082132992
 C          0.5319920722        3.4768798603        1.4715945287
 C         -0.0256778773        3.9755926502        0.3044841784
 C          0.5343161828        3.6754268393       -0.9282755914
 C          1.6696008923        2.8847330485       -0.9972240909
 H          2.1356369823        2.6362691078       -1.9363465207
 H          0.0908114132        4.0578031392       -1.8336119917
 H         -0.9020955769        4.6031926708        0.3553940179
 H          0.0881853222        3.6973754610        2.4291747485
 H          2.1206473313        2.2628784397        2.2911716295
 H          4.4011480709        0.4998246765       -1.8189915493
 H          4.3816339896       -1.7913265738       -2.3916716184
 H          3.3441247481       -4.0048122530       -2.0702369976
 H          1.4249756477       -4.2738116811       -0.5621244678
 C          0.1380891787       -2.2710935297        0.8769544411
 H          0.3753727989       -1.7053010594        1.7895549309
 C         -0.2703580523       -3.6750379693        1.2647574416
 C          0.5332625671       -4.4203268493        2.2869085421
 C         -0.8363386427       -3.9188818283        2.6302792116
 H         -1.6371478831       -4.6353823378        2.7354278518
 H         -0.9186547823       -3.0715553180        3.2953805712
 H          0.6742695064       -5.4828015895        2.1597324826
 H          1.3827745173       -3.9120031297        2.7181257420
 H         -0.6981863025       -4.2359724493        0.4425043918
 O         -0.8564586999        0.2267660413        1.7937498298
