  62
        -98.93769729
 C         -1.7012557596       -1.3181974308        0.0002160402
 C         -2.9442354296       -1.1105972414        0.6435269703
 C         -3.8244019601       -0.0922596617        0.0503222106
 C         -3.4085311905        0.5762471886       -1.0408486194
 C         -4.1526899511        1.6950476384       -1.7130602692
 C         -4.0033775916        2.9954547883       -0.8976650890
 C         -5.3088016518        3.5146903677       -0.2947432788
 H         -5.0496233521        4.2988468677        0.4200096913
 H         -5.9065125221        3.9739884775       -1.0848081087
 C         -6.1816722413        2.4692800172        0.4063106111
 H         -6.9168909814        3.0160767568        1.0004853713
 H         -6.7432703211        1.9013797170       -0.3369699389
 C         -5.4434743007        1.4840050574        1.3217615109
 H         -4.5053480409        1.9143662977        1.6736473209
 H         -6.0630351406        1.3116991370        2.2042816410
 C         -5.1699212302        0.1053387976        0.6921032307
 H         -5.9563196001       -0.1266945427       -0.0316398092
 H         -5.2159649497       -0.6518893425        1.4806303406
 H         -3.2784894015        2.8197989586       -0.0994941091
 H         -3.5852515120        3.7783013486       -1.5324797589
 H         -3.7243078412        1.8194580587       -2.7078075292
 H         -5.2019510810        1.4274101279       -1.8165414191
 O         -2.2017219705        0.3583337793       -1.6248354995
 C         -1.3217000700       -0.5998286104       -1.1339774097
 O         -0.2615704600       -0.6953257098       -1.7769495799
 O         -3.3028432792       -1.7506995417        1.6697027003
 C         -0.7716332191       -2.3830485704        0.5462731500
 C          0.5951529807       -1.8497398398        0.9037922399
 C          1.7034388011       -2.6881918794        0.9744996397
 C          2.9474307309       -2.1894423688        1.3178654196
 C          3.1241279403       -0.8417550988        1.5728261498
 C          2.0283303600        0.0066844607        1.4871186100
 C          0.7743583102       -0.5031185898        1.1833179901
 H         -0.0735242801        0.1689709798        1.1381402503
 N          2.2071525494        1.3870878508        1.6783053302
 S          3.5281733490        2.0978167415        0.9284978802
 O          4.6662548091        2.0294406919        1.8131006401
 O          3.0922866183        3.4335257613        0.5810629304
 C          3.8661266793        1.1381385218       -0.5396543300
 C          5.1591972694        0.7150911124       -0.7765309802
 C          5.4221754097       -0.0411626373       -1.9069967903
 C          4.3902609597       -0.3707007876       -2.7725014202
 C          3.0978719596        0.0631952218       -2.5221438501
 C          2.8318033893        0.8312563415       -1.4004821099
 H          1.8261799592        1.1621908910       -1.1954387698
 H          2.2802669896       -0.2024573585       -3.1729155800
 H          4.5913980999       -0.9714595774       -3.6454362003
 H          6.4270472698       -0.3783311668       -2.1041184004
 H          5.9269282894        0.9785678227       -0.0670987602
 H          1.3721189491        1.9312327404        1.5182414604
 H          4.0873680102       -0.4320830284        1.8312616498
 H          3.7935695012       -2.8561208685        1.3775131595
 H          1.5889128116       -3.7378059494        0.7589275995
 H         -1.2506961488       -2.7398640708        1.4710685799
 C         -0.6892137886       -3.5412749502       -0.4325827302
 C         -0.6481224679       -4.9585397303        0.0530574496
 C         -1.8855651782       -4.4275941307       -0.6034676902
 H         -2.1375573082       -4.7710636207       -1.5955254703
 H         -2.7452991283       -4.2204937112        0.0173367599
 H         -0.0477794877       -5.6720997199       -0.4910103906
 H         -0.6799085478       -5.1265112605        1.1191730896
 H         -0.1242388288       -3.2886030199       -1.3228096802
