  62
        -98.94008477
 C          1.9570667084        1.4108857826       -0.0273173681
 C          1.7615638585        0.0633176125       -0.4179295862
 C          2.9857874139       -0.7078288114       -0.6893391098
 C          4.1866431410       -0.1163420838       -0.5615000515
 C          5.5076405927       -0.8004899056       -0.7584293374
 C          6.0341069968       -1.3803653284        0.5618225144
 C          5.0020935848       -2.2078782982        1.3283115439
 H          4.1940147802       -1.5522374799        1.6612617961
 H          5.4937240710       -2.5905612762        2.2254532575
 C          4.4077462289       -3.3783187409        0.5324376829
 H          4.3866854121       -4.2620547084        1.1737360603
 H          5.0494159444       -3.6113984802       -0.3181893940
 C          2.9768060170       -3.1510887033        0.0410517851
 H          2.3492914109       -2.8272083484        0.8756825976
 H          2.5828888698       -4.1087432757       -0.3099034876
 C          2.8162856513       -2.1425313746       -1.1034525004
 H          1.7920190230       -2.2298213656       -1.4770346509
 H          3.5016266266       -2.3948288449       -1.9151203817
 H          6.3525584590       -0.5535163754        1.2010610671
 H          6.9082503144       -1.9967598806        0.3442810014
 H          5.3954397419       -1.5927035281       -1.4960430130
 H          6.2231423556       -0.0663125909       -1.1328342312
 O          4.3352509635        1.1786257247       -0.1816080472
 C          3.2326227241        1.9628442413        0.1165378775
 O          3.5126597062        3.1168967520        0.4973450519
 H         -1.9519793470        2.0298768786        0.0056005233
 C         -1.5669080589        1.5325364827        0.8821669299
 C         -0.2120168652        1.5784790621        1.1710236944
 C          0.2433722484        0.9150104314        2.3081971869
 C         -0.6237177037        0.1998397552        3.1105648882
 C         -1.9747751081        0.1481551616        2.8125816385
 C         -2.4430272495        0.8227629526        1.6952505391
 N         -3.8247088186        0.7854689013        1.4046179203
 S         -4.4733870840       -0.6668976130        0.8777950393
 O         -5.9047221266       -0.4659809290        0.8384747173
 O         -3.9980062374       -1.7260664911        1.7293627675
 C         -3.8631306393       -0.8670834828       -0.7870594198
 C         -4.7240317567       -0.6488358481       -1.8456565229
 C         -4.2368131864       -0.7474379016       -3.1385848280
 C         -2.8998409125       -1.0502490500       -3.3505719082
 C         -2.0496001574       -1.2620640770       -2.2768767160
 C         -2.5308801919       -1.1714044252       -0.9805454639
 H         -1.8747031046       -1.3197806267       -0.1384077373
 H         -1.0042446964       -1.4803197056       -2.4252051380
 H         -2.5171175876       -1.1192835678       -4.3568700921
 H         -4.8970110379       -0.5837810551       -3.9752659109
 H         -5.7542746213       -0.4124821060       -1.6330045679
 H         -4.1201019316        1.5193900850        0.7751642058
 H         -2.6645972901       -0.4173308362        3.4171946608
 H         -0.2474508151       -0.3203523952        3.9789680217
 H          1.2985247497        0.9538456796        2.5458176765
 C          0.7881455855        2.3187219891        0.3155333217
 H          1.2255822824        3.1204408010        0.9336792756
 C          0.1583293998        2.9977313886       -0.8934772060
 C          0.9003345253        3.1342115978       -2.1886970811
 C         -0.2809130005        2.2182610494       -2.0961678838
 H         -1.1946885523        2.5084599453       -2.5945008451
 H         -0.1086419243        1.1541505298       -2.0833620728
 H          1.8862215862        2.6971570760       -2.2531479051
 H          0.7976233804        4.0574701185       -2.7391775727
 H         -0.4572524368        3.8456711949       -0.6084813884
 O          0.6347480820       -0.4798679077       -0.5376027203
