  62
        -98.92991399
 C         -0.5819188382       -1.9166196704        0.1814593249
 C         -1.4667716528       -1.3598201283        1.1356438550
 C         -2.6053063670       -0.5761644440        0.6200936667
 C         -2.7495761816       -0.4420642508       -0.7100617857
 C         -3.8147402474        0.3088334781       -1.4670220984
 C         -4.0951393019        1.7387239778       -0.9768810405
 C         -5.4735738629        1.8925912401       -0.3336709314
 H         -5.7696009697        2.9425911730       -0.3856547175
 H         -6.1970887059        1.3199467081       -0.9174763278
 C         -5.5526820521        1.4641474621        1.1306713247
 H         -5.0215799963        2.1921562810        1.7482201731
 H         -6.6039303825        1.4936175636        1.4270784374
 C         -4.9962862001        0.0729928262        1.4452442762
 H         -5.2688800640       -0.6373791212        0.6661724207
 H         -5.4698199833       -0.2706296879        2.3675936373
 C         -3.4780032316        0.0488087657        1.6742844229
 H         -3.1122278163        1.0637339933        1.8649475917
 H         -3.2558700085       -0.5176225346        2.5846961313
 H         -3.3173132906        2.0509768037       -0.2801250075
 H         -4.0454899137        2.4080000272       -1.8369694907
 H         -3.4756578849        0.3270000161       -2.5050634933
 H         -4.7361260737       -0.2768303684       -1.4513829333
 O         -1.8889564401       -1.0198888760       -1.5943030042
 C         -0.7791447297       -1.7477916019       -1.1890981874
 O         -0.0836743640       -2.1659008542       -2.1286488804
 O         -1.3125256994       -1.5100840047        2.3791474369
 C          0.6446706188       -2.6580680689        0.6996822012
 C          1.8660002756       -1.9577229189        0.1575776856
 C          2.6189416592       -2.3345540680       -0.9478066376
 C          3.6778541635       -1.5521568716       -1.3774723257
 C          3.9986854197       -0.3687713334       -0.7402063521
 C          3.2458046780        0.0297282873        0.3583172543
 C          2.2057016683       -0.7698329800        0.8020012100
 H          1.6323034574       -0.4461157993        1.6591454893
 N          3.5359645608        1.2302260538        1.0339918739
 S          2.3066246688        2.3154069638        1.3587599340
 O          2.9928792455        3.5294778288        1.7435093285
 O          1.3946688777        1.7654652873        2.3276046232
 C          1.4886293668        2.5652632487       -0.2058038673
 C          0.4221405388        1.7640997969       -0.5604290824
 C         -0.1590161013        1.9402506365       -1.8065654086
 C          0.3311887036        2.9076817759       -2.6697545989
 C          1.4011092019        3.7072655198       -2.2972439162
 C          1.9901143996        3.5320482254       -1.0561621751
 H          2.8170413402        4.1366591738       -0.7203707793
 H          1.7771083258        4.4614065996       -2.9695516264
 H         -0.1273103640        3.0369116357       -3.6373427623
 H         -0.9845075219        1.3119981792       -2.0991755896
 H          0.0579554032        1.0213174915        0.1338211179
 H          4.3400308496        1.7208494176        0.6684552786
 H          4.8178781034        0.2424740206       -1.0870146031
 H          4.2512520231       -1.8657995929       -2.2365308646
 H          2.3736623186       -3.2207848566       -1.5035042154
 H          0.6334515359       -2.4593027809        1.7837324323
 C          0.4807207205       -4.1655987470        0.5758194400
 C          0.5508703568       -4.9583318672       -0.6931365711
 C          1.6115469558       -5.1240009291        0.3540725346
 H          1.6189702799       -6.0388163015        0.9280558934
 H          2.5924906496       -4.7166557598        0.1693853608
 H         -0.1682979779       -5.7557358358       -0.8179985594
 H          0.7687146324       -4.4383853385       -1.6110463366
 H         -0.2845403644       -4.4946532662        1.2757435728
