  62
        -98.94199139
 C         -0.6684680597       -1.3506383692        0.0185288721
 C         -1.4268487731       -0.7549850245        1.0504326746
 C         -2.4531489017        0.2215264910        0.6398649970
 C         -2.6138614025        0.4944029182       -0.6687639359
 C         -3.6257460879        1.3533942190       -1.4002653415
 C         -4.7455400603        2.0553472971       -0.6373760888
 C         -5.8586421935        1.1235338010       -0.1539690521
 H         -6.5197270909        1.6862249949        0.5083889739
 H         -6.4453149900        0.8122620686       -1.0219029497
 C         -5.3979258611       -0.1438631143        0.5618238338
 H         -4.7598927267       -0.7314478552       -0.1009472661
 H         -6.2833018211       -0.7481394846        0.7773289653
 C         -4.6617833584        0.0843137488        1.8792557449
 H         -5.2875223408        0.6699120772        2.5560980943
 H         -4.4932346004       -0.8923048683        2.3415506368
 C         -3.2973090261        0.7782364431        1.7511754518
 H         -3.4134883063        1.8542960037        1.6486455188
 H         -2.7401977197        0.5970964071        2.6756686314
 H         -5.1975744255        2.7719278470       -1.3282210307
 H         -4.3363649691        2.6310568174        0.1877132725
 H         -3.0450697735        2.1044685430       -1.9425343034
 H         -4.0694750940        0.7054414106       -2.1635127026
 O         -1.7856906706       -0.0325763609       -1.6181700077
 C         -0.8017466512       -0.9559169372       -1.3109650984
 O         -0.1368753926       -1.3430435070       -2.2889201288
 H          1.6201511587       -0.2848382397        1.1258450130
 C          2.2259658919       -0.8881662004        0.4645577370
 C          1.7118413978       -2.0784567940       -0.0365207792
 C          2.5141128885       -2.8565290543       -0.8606193980
 C          3.7941062683       -2.4415079300       -1.1842860967
 C          4.2979927859       -1.2506441625       -0.6964407526
 C          3.5060761453       -0.4699618589        0.1396680157
 N          3.9989224066        0.7321055203        0.6640211872
 S          2.9859033074        1.9625862590        1.1309947117
 O          3.8374775324        3.1344544556        1.1413290631
 O          2.3540458225        1.6472843650        2.3879110373
 C          1.7527673140        2.1612978017       -0.1433212186
 C          0.5020552535        2.6032957004        0.2360724768
 C         -0.4419588382        2.8732150845       -0.7405434591
 C         -0.1257506152        2.6785984996       -2.0757229398
 C          1.1282922341        2.2168252383       -2.4408257239
 C          2.0832261781        1.9662676284       -1.4691363613
 H          3.0674467998        1.6176937209       -1.7361683595
 H          1.3651335850        2.0512594771       -3.4793484275
 H         -0.8593170031        2.8831897810       -2.8397715745
 H         -1.4168288962        3.2322889012       -0.4520772476
 H          0.2898372969        2.7218535100        1.2870826391
 H          4.8685390012        1.0629716324        0.2745966484
 H          5.2949616354       -0.9259400542       -0.9515600847
 H          4.4063171165       -3.0525108168       -1.8298363979
 H          2.1371404173       -3.7851781714       -1.2549897041
 C          0.3097166770       -2.4586426575        0.3633048733
 H          0.2830276099       -2.5397408190        1.4603177867
 C         -0.1646555917       -3.7669430162       -0.2353887204
 C          0.2162234564       -5.0696975138        0.3997117200
 C         -1.1929103398       -4.5701236349        0.5009053642
 H         -1.9618641974       -5.0705382057       -0.0684826030
 H         -1.5348953439       -4.1863114191        1.4512028318
 H          0.4132358557       -5.9177622239       -0.2384383230
 H          0.8317152709       -5.0314929407        1.2857318090
 H         -0.2455809575       -3.7263235599       -1.3159094937
 O         -1.2721176422       -1.0414412753        2.2692074150
