  62
        -98.94525056
 C         -1.4712971541       -1.2681668317       -0.4107544860
 C         -2.8068934140       -1.3757800182        0.0584867974
 C         -3.7780085683       -0.4395599153       -0.5149481431
 C         -3.3773136230        0.4474930675       -1.4431909371
 C         -4.2478173279        1.4623161528       -2.1334984821
 C         -4.4480997104        2.7564972309       -1.3331734520
 C         -5.3658393207        2.6329019985       -0.1160589307
 H         -5.5937491867        3.6474420718        0.2169155106
 H         -6.3060261951        2.1696828527       -0.4171437953
 C         -4.7584702433        1.8536307795        1.0590251271
 H         -3.6748003029        1.7873273292        0.9317048365
 H         -4.9358041333        2.3998716270        1.9883512895
 C         -5.3236021639        0.4454160790        1.2463552511
 H         -4.7948530659       -0.0264634236        2.0784166910
 H         -6.3816111792        0.5079232814        1.5104434104
 C         -5.1788511121       -0.4618282036        0.0177760516
 H         -5.4026966121       -1.4874905462        0.3209588070
 H         -5.8850053457       -0.1628719755       -0.7565155571
 H         -3.4694207413        3.1260485555       -1.0163939722
 H         -4.8782952874        3.4966005114       -2.0120841763
 H         -3.7495471117        1.7123179158       -3.0726436859
 H         -5.2180265216        1.0195984578       -2.3610459011
 O         -2.0961420411        0.5043179564       -1.8882205265
 C         -1.1072653130       -0.3254588925       -1.3728913991
 O          0.0127073549       -0.1278846389       -1.8800266191
 O         -3.1725055324       -2.2263459919        0.9134347499
 C         -0.4523866770       -2.2000247225        0.2274216562
 C          0.2171540496       -1.4736351008        1.3708461309
 C         -0.1913928465       -1.7129021220        2.6786934678
 C          0.3860956189       -1.0279379746        3.7321611699
 C          1.3760985444       -0.0911932802        3.4996346350
 C          1.7892555427        0.1603579632        2.1949244326
 C          1.2157916916       -0.5368301864        1.1409439100
 H          1.5186009160       -0.3177118564        0.1313705378
 N          2.8082990130        1.0873760291        1.9461046962
 S          2.8526356219        2.0080737151        0.5470062380
 O          3.6900022050        3.1357362954        0.9065865214
 O          1.5271744077        2.3334062008        0.0773287724
 C          3.7524219240        0.9848093364       -0.5975670038
 C          5.0588922488        0.6782046669       -0.2672342570
 C          5.7979874681       -0.1207886742       -1.1230610612
 C          5.2209138836       -0.5969472840       -2.2912610338
 C          3.9109724852       -0.2758498437       -2.6093633901
 C          3.1642424649        0.5253493315       -1.7576815300
 H          2.1351423747        0.7721419555       -1.9696911935
 H          3.4564341152       -0.6469548214       -3.5143676742
 H          5.7940163379       -1.2221069929       -2.9578821791
 H          6.8174982475       -0.3717484435       -0.8783639008
 H          5.4696601379        1.0764182448        0.6455068149
 H          3.1192411440        1.6085631276        2.7524199791
 H          1.8255120009        0.4485324598        4.3194550919
 H          0.0589552707       -1.2203953941        4.7428326118
 H         -0.9823757098       -2.4262823646        2.8591778099
 H         -1.0473119599       -3.0163866513        0.6599834978
 C          0.5456018607       -2.7973783735       -0.7415326680
 C          1.3140274364       -4.0145849232       -0.3247627361
 C          0.2489134049       -4.1230448931       -1.3733206434
 H          0.5454730301       -4.2807596528       -2.3992674908
 H         -0.6801939749       -4.6070833244       -1.1093546500
 H          2.3459660459       -4.0991391780       -0.6281335301
 H          1.1060779253       -4.4254862726        0.6516274967
 H          1.0560914353       -2.0652573648       -1.3521442413
