  62
        -98.94332670
 C         -1.2393390895       -0.6308924698        0.5757940310
 C         -1.9576831394       -0.4595214209       -0.6330503192
 C         -2.9764463092        0.5998883393       -0.6217736204
 C         -3.1045686992        1.4001284903        0.4507645289
 C         -4.0825288390        2.5337349706        0.6006919776
 C         -5.4794588792        2.0954995313        1.0623524579
 C         -6.3139926191        1.3641391004        0.0099313785
 H         -7.3353070892        1.3113888909        0.3922082684
 H         -6.3393019789        1.9553246495       -0.9059898921
 C         -5.8313442993       -0.0584068700       -0.3061720601
 H         -5.1642430495       -0.4012233593        0.4881102103
 H         -6.6861035294       -0.7381702498       -0.3214546095
 C         -5.1150404492       -0.2004812314       -1.6492407398
 H         -5.8128399491        0.0145645080       -2.4614159001
 H         -4.7859257693       -1.2374303915       -1.7540565988
 C         -3.8866476690        0.7054705983       -1.8079280906
 H         -3.3251875390        0.3763516074       -2.6859462802
 H         -4.1969653989        1.7391920482       -1.9598163716
 H         -5.3721288894        1.4631516421        1.9468171885
 H         -6.0199177491        2.9963792117        1.3620086070
 H         -3.6646330190        3.2067945413        1.3527761370
 H         -4.1615122888        3.0761669997       -0.3420952729
 O         -2.3132396393        1.2776291513        1.5502948691
 C         -1.3743426295        0.2627250112        1.6408468502
 O         -0.7198760696        0.2666726922        2.7038745602
 H          1.0316001807        0.4421783591       -0.1910405497
 C          1.3322647907       -0.4308195915       -0.7508108388
 C          0.7658740004       -1.6621741511       -0.4477633077
 C          1.1279214804       -2.7637755719       -1.2108811166
 C          2.0316050305       -2.6236294331       -2.2505318666
 C          2.6114671607       -1.4002585534       -2.5327624378
 C          2.2523979008       -0.2909136526       -1.7752041889
 N          2.8164577410        0.9719888970       -2.0147228900
 S          3.1228629810        1.9798589783       -0.7170542210
 O          1.9055663211        2.6073387089       -0.2652152417
 O          4.1507610612        2.8787289576       -1.1984767817
 C          3.7972443107        0.9106333894        0.5431654402
 C          5.0243773007        0.3275696989        0.2903108209
 C          5.5589955004       -0.5463977902        1.2219035218
 C          4.8581258902       -0.8263986290        2.3854215720
 C          3.6319232703       -0.2281038286        2.6284023512
 C          3.0931035305        0.6501100406        1.7006637703
 H          2.1371071006        1.1236573809        1.8647431497
 H          3.0807969501       -0.4413624876        3.5307078514
 H          5.2692829800       -1.5123005984        3.1090959627
 H          6.5153148504       -1.0086283606        1.0379937423
 H          5.5435847808        0.5778455580       -0.6204621593
 H          3.5623309111        0.9866158863       -2.6943655399
 H          3.3224452908       -1.2974971743       -3.3379884278
 H          2.2956444504       -3.4844114337       -2.8458231058
 H          0.6873135802       -3.7260509717       -1.0090674357
 C         -0.1808071697       -1.7089847498        0.7266248722
 H          0.3977144202       -1.4078782691        1.6165916020
 C         -0.7284920200       -3.0977184695        1.0205089735
 C         -2.0851182601       -3.2804971687        1.6318891135
 C         -1.8347170100       -3.7148698901        0.2206501239
 H         -1.7866005801       -4.7742488103        0.0143736750
 H         -2.2541457898       -3.1308088708       -0.5823060367
 H         -2.2081270503       -4.0365462079        2.3929549742
 H         -2.6825512099       -2.3948868784        1.7960314226
 H          0.0470554699       -3.7697279992        1.3746785442
 O         -1.7725168693       -1.1460617619       -1.6703708585
