  62
        -98.94267774
 C         -2.1454123686       -0.8854649532        0.1614782657
 C         -2.6762852915       -0.0191681214        1.1455757128
 C         -3.0462442980        1.3259531876        0.6866335241
 C         -2.8224123417        1.6669414133       -0.5958989576
 C         -3.1830209135        2.9901022819       -1.2053435243
 C         -4.5923444854        2.9576553563       -1.8130491378
 C         -5.6558960434        2.3890860011       -0.8735519795
 H         -6.6132674711        2.4440918443       -1.3959436975
 H         -5.4456928499        1.3317234560       -0.6972094012
 C         -5.7659117519        3.1156049093        0.4742304768
 H         -5.2939289464        4.0963015755        0.4056029665
 H         -6.8220020797        3.2785072133        0.6987277423
 C         -5.1725112057        2.3495164249        1.6579165190
 H         -5.5726464058        1.3326903682        1.6735454264
 H         -5.4951687772        2.8429254583        2.5784805757
 C         -3.6414201994        2.2647413948        1.6985590720
 H         -3.2135468378        3.2641431998        1.5951182089
 H         -3.3560633006        1.8684713391        2.6776421310
 H         -4.8653262705        3.9735678898       -2.1040906568
 H         -4.5653349944        2.3411149833       -2.7144645443
 H         -3.1218911152        3.7638724672       -0.4423390238
 H         -2.4594009778        3.2120838095       -1.9918454572
 O         -2.2765319261        0.8190728145       -1.5053416319
 C         -1.9251911787       -0.4757379730       -1.1541158247
 O         -1.4385044553       -1.1473822596       -2.0835558553
 H          0.2014442341       -0.5696216627        1.1865313929
 C          0.6100459271       -1.4412989527        0.6877365233
 C         -0.2477444497       -2.4614516354        0.2949570218
 C          0.2968775485       -3.5694357163       -0.3401006909
 C          1.6558839809       -3.6345169921       -0.5985813268
 C          2.4997199972       -2.6031771566       -0.2300478180
 C          1.9669504054       -1.4995142144        0.4205336371
 N          2.8228553128       -0.4284487743        0.7837905506
 S          3.2685654628        0.5823054599       -0.5007650895
 O          2.3875625976        1.7334402018       -0.5246257449
 O          3.3595118955       -0.1959006622       -1.7086399302
 C          4.8981486761        1.0883792402        0.0149639998
 C          5.0763348445        2.3124091292        0.6287149514
 C          6.3460607138        2.6703134207        1.0548127160
 C          7.4087198068        1.8004239519        0.8648498476
 C          7.2136681082        0.5738435980        0.2472655355
 C          5.9470800900        0.2113311030       -0.1812790227
 H          5.7493026296       -0.7262217974       -0.6738711404
 H          8.0425576427       -0.0994137798        0.0992889179
 H          8.3954639270        2.0810669264        1.1978619131
 H          6.5003624330        3.6243856951        1.5327138952
 H          4.2228426573        2.9601066321        0.7483842290
 H          2.3915294930        0.1625574627        1.4834707605
 H          3.5534221189       -2.6317013357       -0.4523675233
 H          2.0602659768       -4.4981330163       -1.1043164283
 H         -0.3460971966       -4.3770670127       -0.6497825821
 C         -1.7228535577       -2.2876969385        0.5627271986
 H         -1.8876066950       -2.3450398427        1.6492740875
 C         -2.5906785149       -3.3240963605       -0.1187899229
 C         -2.8423743025       -4.6485569726        0.5361610300
 C         -3.9391209523       -3.6308164581        0.4583916013
 H         -4.7616715346       -3.8058176599       -0.2186515188
 H         -4.2207160122       -3.1096178227        1.3617910078
 H         -2.3838400490       -4.8256307333        1.4971284672
 H         -2.9150886670       -5.5262876958       -0.0879779610
 H         -2.5032197732       -3.2913732529       -1.1991817034
 O         -2.8221750582       -0.3521202830        2.3535206756
