  62
        -98.93790642
 C         -2.6082157003       -0.1923758478       -0.0414581927
 C         -2.3936686808       -1.2821521925       -0.9135987976
 C         -1.7597704601       -2.4791993189       -0.3365901728
 C         -1.3977803865       -2.4718202289        0.9601539115
 C         -0.7267281823       -3.5268197733        1.8147919297
 C         -0.0956019307       -4.7629938457        1.1798289403
 C          1.1589852969       -4.4846620129        0.3521540543
 H          1.9615814596       -4.1892821477        1.0328497830
 H          1.4585777896       -5.4147803345       -0.1363917809
 C          1.0297500564       -3.3881339295       -0.7027883266
 H          1.9961137793       -3.3014475716       -1.2091499351
 H          0.8352732767       -2.4285408906       -0.2165503126
 C         -0.0266326448       -3.6378307305       -1.7776763295
 H          0.1578310168       -4.6021552350       -2.2559553205
 H          0.0867743722       -2.8598152837       -2.5380252754
 C         -1.4864329113       -3.6023606927       -1.2961660976
 H         -2.1233849828       -3.4211845947       -2.1672029420
 H         -1.7843313954       -4.5551964018       -0.8657868901
 H         -0.8324721558       -5.3017414671        0.5913377200
 H          0.1943159720       -5.4210039845        2.0036669322
 H         -1.4849000829       -3.8531207250        2.5355412522
 H          0.0355759184       -2.9901663799        2.3895745614
 O         -1.6573748929       -1.4067475000        1.7735864927
 C         -2.2151493615       -0.2361652590        1.2958486936
 O         -2.3249296732        0.6676156420        2.1473946682
 O         -2.7045334550       -1.2527131274       -2.1369885522
 C         -3.1143622053        1.1230189305       -0.6111104396
 C         -1.9994314599        2.1297464570       -0.4589200373
 C         -2.1454501044        3.3866679823        0.1113676069
 C         -1.0392231333        4.1921162500        0.3299664724
 C          0.2328578683        3.7594865970        0.0006992158
 C          0.3811327337        2.5190975509       -0.6013043195
 C         -0.7266305251        1.7300330848       -0.8478941855
 H         -0.5931589383        0.7544250658       -1.3002099654
 N          1.6905691730        2.0179121005       -0.8711334665
 S          2.1984674586        1.1124677726        0.4748534589
 O          1.4315887773       -0.1108242779        0.5779650773
 O          2.1835029788        1.9859785430        1.6204543835
 C          3.8830140072        0.7387040084        0.0235011878
 C          4.8048480341        1.7678491778        0.0357012069
 C          6.1104720779        1.5008875432       -0.3431659576
 C          6.4700119480        0.2169174294       -0.7262219530
 C          5.5334977005       -0.8053221560       -0.7328125311
 C          4.2247592102       -0.5440138415       -0.3570909241
 H          3.4623869328       -1.3068888621       -0.3425322492
 H          5.8151493020       -1.8030237121       -1.0289668699
 H          7.4871552671        0.0110293366       -1.0199240720
 H          6.8421312995        2.2925512570       -0.3383316905
 H          4.4793201412        2.7459350420        0.3480711782
 H          1.6673880831        1.3736671327       -1.6537110323
 H          1.1059710618        4.3522119699        0.2179429295
 H         -1.1692456041        5.1597878088        0.7903063036
 H         -3.1233938836        3.7260671700        0.4122306187
 H         -3.2812829935        0.9377163418       -1.6825349758
 C         -4.4179149170        1.5489902864        0.0252866476
 C         -5.3642174203        2.4375058756       -0.7245293305
 C         -5.7024688953        0.9937826292       -0.5104319535
 H         -6.4856947868        0.7432466339        0.1889163406
 H         -5.6380753306        0.3211375499       -1.3531781967
 H         -5.9200316564        3.1800834107       -0.1724956446
 H         -5.0764876313        2.7481625928       -1.7174412172
 H         -4.3339961281        1.6741956414        1.0988177067
