  62
        -98.93136960
 C          2.2387240721        0.8027279319        0.7252770115
 C          2.9990735936       -0.3419586646        1.0670689308
 C          4.3776258959       -0.4255567170        0.5499544304
 C          4.8413377496        0.5853732918       -0.2080358208
 C          6.1859552158        0.7148776183       -0.8728749542
 C          6.3126863220       -0.1614187703       -2.1293632336
 C          5.7739863108       -1.5816627287       -1.9793226422
 H          5.8232915118       -2.0606869945       -2.9607332917
 H          4.7214028718       -1.5381842641       -1.6933345067
 C          6.5327076393       -2.4642589647       -0.9910724199
 H          7.5783437423       -2.5314474805       -1.2997199861
 H          6.1026471516       -3.4671054747       -1.0556988632
 C          6.4857974338       -2.0227473656        0.4733732863
 H          7.1671064308       -1.1963242170        0.6571515939
 H          6.8454448782       -2.8609346861        1.0774902196
 C          5.0921673440       -1.6802911555        0.9907691945
 H          5.1294886171       -1.6276828055        2.0858137096
 H          4.4116958915       -2.5100727097        0.7674713328
 H          7.3639283222       -0.1969418514       -2.4200616479
 H          5.7553920169        0.3219226116       -2.9353508017
 H          6.9766063363        0.4911502120       -0.1628453679
 H          6.2895881119        1.7615265273       -1.1674116578
 O          4.0748797797        1.6684506536       -0.5146389355
 C          2.7677580957        1.8138199421       -0.0776875935
 O          2.2215833651        2.8594200021       -0.4706347496
 O          2.5420639564       -1.2719156051        1.7882789707
 C          0.8282718632        0.8680984348        1.2796808067
 C         -0.1774060128        0.2807202459        0.3251893546
 C         -0.2247876101        0.6601657665       -1.0127985750
 C         -1.1951399460        0.1485352325       -1.8558989378
 C         -2.1446356160       -0.7398250611       -1.3793839192
 C         -2.0961668272       -1.1330661439       -0.0501115463
 C         -1.1131919050       -0.6320130828        0.7895751595
 H         -1.0853489839       -0.9470608618        1.8243226580
 N         -3.1165590169       -1.9930310274        0.4455150885
 S         -4.3954834296       -1.0882244587        1.0792726272
 O         -3.9087034327       -0.0634993377        1.9781204442
 O         -5.3150888957       -2.0437914682        1.6544652553
 C         -5.0917607709       -0.3437825151       -0.3750182386
 C         -5.9351266716       -1.0966772213       -1.1683212676
 C         -6.4412970992       -0.5319101739       -2.3280461817
 C         -6.0923942458        0.7653926719       -2.6735602375
 C         -5.2443433607        1.5074443103       -1.8653386696
 C         -4.7360182436        0.9496465678       -0.7029780416
 H         -4.0738951095        1.4910024402       -0.0458565912
 H         -4.9728813298        2.5151664655       -2.1359457373
 H         -6.4843639493        1.2024222330       -3.5784355184
 H         -7.1023237690       -1.1040285088       -2.9589783525
 H         -6.1799973552       -2.0989341776       -0.8577059939
 H         -2.7812017610       -2.6123278119        1.1724185689
 H         -2.9106544121       -1.1369647302       -2.0251702334
 H         -1.2191083179        0.4535952896       -2.8906759522
 H          0.5019110281        1.3702896183       -1.3786148972
 H          0.8501108266        0.2187388249        2.1701506182
 C          0.4200068746        2.2565432934        1.7538691583
 C         -0.5407422399        3.1396899050        1.0221933385
 C         -0.9561881957        2.4905016184        2.3062191876
 H         -1.0591496662        3.1050791811        3.1880858730
 H         -1.6700663716        1.6797475354        2.2547231934
 H         -0.3353925452        4.1990878904        1.0136861159
 H         -0.9716177348        2.7753036033        0.1033451695
 H          1.2369575718        2.7596556864        2.2621899881
