  62
        -98.93627905
 C          1.7471532696       -0.4419396594       -0.3499928712
 C          2.8923392623       -0.5014032850       -1.1776618809
 C          4.1866231883       -0.5978394498       -0.4864101901
 C          4.2086566294       -0.6343532809        0.8586871589
 C          5.4476086543       -0.6471070629        1.7085624645
 C          6.0554828185        0.7686650922        1.7746711136
 C          7.4302963875        0.8963791448        1.1181086938
 H          7.6557598090        1.9618486198        1.0361175510
 H          8.1802936661        0.4509125089        1.7750976055
 C          7.5738125438        0.2488842538       -0.2626481424
 H          8.4911305108        0.6433991555       -0.7049505498
 H          7.7204463724       -0.8263876211       -0.1506196532
 C          6.4148587359        0.4866887298       -1.2393124388
 H          6.8357420295        0.6372096790       -2.2356246676
 H          5.8760238092        1.3990114579       -0.9822378032
 C          5.4171648159       -0.6818699822       -1.3467347924
 H          5.0379429826       -0.7231814566       -2.3722198652
 H          5.9363459772       -1.6241142540       -1.1508729195
 H          5.3584448063        1.4629991911        1.3006513488
 H          6.1449524810        1.0781458136        2.8170506013
 H          5.1548162488       -0.9812381989        2.7039976627
 H          6.1667051430       -1.3538333509        1.3004495802
 O          3.0843412681       -0.5847405005        1.6193906863
 C          1.8271343377       -0.4840638833        1.0417070343
 O          0.8872270657       -0.4433653555        1.8566561632
 O          2.8347728509       -0.4703185106       -2.4373582160
 C          0.3782961177       -0.3314760997       -0.9946091940
 C         -0.3344426933        0.9125228654       -0.5247538108
 C          0.3710158936        2.1108957604       -0.4451257493
 C         -0.2470766394        3.2689755911       -0.0173037857
 C         -1.5889067376        3.2633504194        0.3214346461
 C         -2.3072131250        2.0785267091        0.2296289488
 C         -1.6789305174        0.9125137652       -0.1879437546
 H         -2.2548552722        0.0046005330       -0.2513770314
 N         -3.6653262174        2.0362361038        0.5753588378
 S         -4.7355985640        1.1281895062       -0.3329379540
 O         -4.3616412741        1.0989556651       -1.7275693627
 O         -6.0344792833        1.6963837160       -0.0386559494
 C         -4.6604416478       -0.5101541501        0.3593655266
 C         -4.5035041209       -0.6610202025        1.7227695717
 C         -4.4917753196       -1.9398163900        2.2564388955
 C         -4.6455559983       -3.0392241858        1.4254823235
 C         -4.8087394165       -2.8705135531        0.0593140299
 C         -4.8165012207       -1.5941850315       -0.4816340384
 H         -4.9283281637       -1.4175280051       -1.5396491215
 H         -4.9278918304       -3.7266526400       -0.5858396595
 H         -4.6362183500       -4.0330353205        1.8446720447
 H         -4.3607167386       -2.0750348677        3.3180203963
 H         -4.3822033301        0.2132537433        2.3402522393
 H         -4.0642324403        2.9217923830        0.8504585802
 H         -2.0747227852        4.1677291854        0.6552204332
 H          0.3172854682        4.1872497612        0.0476048237
 H          1.4177408046        2.1198531568       -0.7176828083
 H          0.5694201889       -0.2250008977       -2.0734668579
 C         -0.4108329543       -1.6038495991       -0.7655552519
 C         -1.4258551313       -2.0601179437       -1.7692358949
 C         -0.1273053779       -2.7944907567       -1.6299409437
 H         -0.1343222618       -3.7741886496       -1.1767783006
 H          0.6157606810       -2.6767985206       -2.4052001147
 H         -2.3244910433       -2.5367484586       -1.4078052678
 H         -1.5758333173       -1.4459817860       -2.6446970595
 H         -0.6126412899       -1.7828336231        0.2848133843
