  62
        -98.94793198
 C         -1.1468460847       -1.1948357290        0.4694609650
 C         -1.5348649507       -0.4740592700       -0.6854098453
 C         -2.3018328459        0.7548139722       -0.4367762604
 C         -2.4781872985        1.1898247351        0.8238202424
 C         -3.1867379694        2.4524126238        1.2337242965
 C         -4.7083892135        2.2972059251        1.3625586226
 C         -5.4602730962        2.1553181845        0.0384808936
 H         -6.5232705420        2.2666461633        0.2611563497
 H         -5.1799404017        2.9729164371       -0.6262328109
 C         -5.2420159173        0.8117267097       -0.6715399836
 H         -6.2038084068        0.4170487466       -1.0066203612
 H         -4.8301377845        0.0886877962        0.0364599618
 C         -4.3298655061        0.8819797059       -1.8963866302
 H         -4.2157904254       -0.1288846337       -2.2956297789
 H         -4.7996916033        1.4974149874       -2.6665927391
 C         -2.9288410883        1.4417523991       -1.6134956528
 H         -2.3019368011        1.2459735077       -2.4869103427
 H         -2.9865693986        2.5177867474       -1.4478532563
 H         -5.0841949142        3.1842686667        1.8777098214
 H         -4.9181376627        1.4321401675        1.9961976057
 H         -2.7842387543        2.7312873741        2.2102307640
 H         -2.9595730377        3.2496065030        0.5253221472
 O         -1.9968510133        0.5177453271        1.9054224399
 C         -1.3756189612       -0.7131762671        1.7587999881
 O         -1.0733524394       -1.2679626958        2.8355766918
 H          1.5109986276       -1.0094433106        1.2942259963
 C          1.8110138130       -1.4823640220        0.3697665333
 C          0.9223749139       -2.3256739194       -0.2880494645
 C          1.3323147153       -2.9408752131       -1.4630720290
 C          2.5999497331       -2.7071575090       -1.9677758734
 C          3.4787255040       -1.8634149677       -1.3148631672
 C          3.0813680992       -1.2488670622       -0.1316523391
 N          3.9699847472       -0.4171886824        0.5713770164
 S          3.4567082638        1.0382335507        1.2074060120
 O          4.6839727319        1.7374815929        1.5225632415
 O          2.5492720327        0.8213515363        2.3046134162
 C          2.6328498284        1.8631466390       -0.1399437155
 C          3.4136071051        2.4409681748       -1.1229618746
 C          2.7938043354        3.0540930122       -2.1987174301
 C          1.4091367553        3.0777165997       -2.2730608959
 C          0.6403975134        2.4968157286       -1.2770261660
 C          1.2552950419        1.8774061187       -0.2005844511
 H          0.6857866695        1.4117430114        0.5894393636
 H         -0.4355203941        2.5094988742       -1.3315133592
 H          0.9225145066        3.5530154541       -3.1099587167
 H          3.3883127739        3.5102821096       -2.9736825592
 H          4.4859350585        2.4162726978       -1.0161635051
 H          4.8745053945       -0.3140486595        0.1339645104
 H          4.4680035893       -1.6854999875       -1.7078252075
 H          2.9062321195       -3.1880310016       -2.8841426707
 H          0.6598378548       -3.5998300165       -1.9860966553
 C         -0.4372829715       -2.5310965633        0.3357184912
 H         -0.2781290871       -2.8896641234        1.3634192557
 C         -1.3086594263       -3.5277072674       -0.3989997511
 C         -1.1042405815       -4.9967535453       -0.1880431061
 C         -2.3157253927       -4.3196381122        0.3772394067
 H         -3.2765677613       -4.5165674242       -0.0742589241
 H         -2.3614920785       -4.1563315381        1.4446361311
 H         -0.3272515003       -5.2989371958        0.4979218817
 H         -1.2357532046       -5.6628853723       -1.0271397863
 H         -1.5983116316       -3.1865262345       -1.3856113253
 O         -1.2694963340       -0.8336526701       -1.8604400693
