  62
        -98.94966947
 C          1.4998631682        1.0710798703        0.0340322750
 C          2.5119750398        0.6374518024        0.9203588966
 C          3.0288184598       -0.7172879793        0.6912023411
 C          2.4977464941       -1.4663084365       -0.2928655823
 C          2.9537605296       -2.8489389698       -0.6574456591
 C          4.0461971549       -2.8109375109       -1.7353844751
 C          5.1831830754       -1.8369794313       -1.4261857137
 H          5.9089600268       -1.9157180011       -2.2383309026
 H          4.7916825289       -0.8173478875       -1.4407642381
 C          5.8868760590       -2.0890124890       -0.0854965197
 H          5.6676372895       -3.0985339080        0.2640315935
 H          6.9661933482       -2.0255600520       -0.2387402847
 C          5.5341114417       -1.0858314319        1.0142624628
 H          5.6627457966       -0.0682504249        0.6369527416
 H          6.2401857706       -1.2215994279        1.8377963359
 C          4.1214088895       -1.2058436188        1.6004406225
 H          3.9340941324       -2.2372697168        1.9074537169
 H          4.0750256769       -0.5712915184        2.4907344514
 H          4.4488185435       -3.8185620794       -1.8535993951
 H          3.5878137608       -2.5141917441       -2.6814612390
 H          3.3242619115       -3.3491336122        0.2354157111
 H          2.0927511550       -3.4019761300       -1.0373262160
 O          1.5089643547       -1.0254538758       -1.1093221345
 C          0.9811755676        0.2454924980       -0.9625608987
 O          0.0743667277        0.5238759691       -1.7716909838
 H         -0.4334733494        0.6051421027        1.6062311788
 C         -1.1035230890        1.3228883984        1.1553217979
 C         -0.5922066317        2.3626118150        0.3891268277
 C         -1.4830097480        3.2732439218       -0.1662897177
 C         -2.8469126686        3.1266224203        0.0200337889
 C         -3.3523442540        2.0603137968        0.7409818863
 C         -2.4686877000        1.1501243459        1.3083880048
 N         -2.9262039521        0.0256569070        2.0301805261
 S         -2.6112216751       -1.4697696424        1.3361911119
 O         -3.2463372008       -2.4314002327        2.2127677282
 O         -1.1949635553       -1.6307969263        1.1328621313
 C         -3.4917886158       -1.4164941163       -0.2147213202
 C         -2.9286004815       -0.7706808024       -1.2969636972
 C         -3.6685793246       -0.6666603335       -2.4657798901
 C         -4.9454749516       -1.2015695033       -2.5322304736
 C         -5.4952704167       -1.8477171038       -1.4348646650
 C         -4.7654698578       -1.9517374697       -0.2623916350
 H         -5.1484347538       -2.4468494106        0.6155243532
 H         -6.4874324568       -2.2661209438       -1.4884612584
 H         -5.5135534087       -1.1150919717       -3.4450317966
 H         -3.2329009497       -0.1632841436       -3.3139639988
 H         -1.9299971586       -0.3661054977       -1.2304409526
 H         -3.9082407993        0.0721172397        2.2683593353
 H         -4.4169419156        1.9288984730        0.8635390473
 H         -3.5255857527        3.8417781433       -0.4188330530
 H         -1.1081863408        4.0967178882       -0.7519609866
 C          0.9030772837        2.4549901181        0.2085948701
 H          1.3415585945        2.8497034302        1.1379147957
 C          1.3119673724        3.3520567911       -0.9426954039
 C          1.5164243540        4.8214905627       -0.7286225704
 C          2.6962262041        3.9257684774       -0.9531187816
 H          3.2230477495        3.9869392291       -1.8935788411
 H          3.3322626561        3.6932808712       -0.1113104405
 H          1.2355317019        5.5015319414       -1.5186752073
 H          1.3595505553        5.2090955509        0.2666044996
 H          0.8996239141        3.0224485232       -1.8900123525
 O          2.9582991643        1.3498631193        1.8620362843
