  62
        -98.94518250
 C          2.5231187871       -0.3075977507       -0.0473024935
 C          2.2029373239       -1.3142006956        0.8932354172
 C          1.5561352543       -2.5176770521        0.3577191563
 C          1.3184563758       -2.6018138139       -0.9640703482
 C          0.6692688840       -3.7720425589       -1.6452888417
 C         -0.8484658430       -3.5925526268       -1.7742183906
 C         -1.5458969888       -3.2026783675       -0.4707679009
 H         -1.2542581513       -2.1846898625       -0.2014274585
 H         -2.6191914013       -3.1758462173       -0.6758009372
 C         -1.2761206181       -4.1412147106        0.7129591425
 H         -0.9173837765       -5.1056234979        0.3501369061
 H         -2.2186604892       -4.3182819485        1.2351471675
 C         -0.2942267225       -3.5865347864        1.7472711301
 H         -0.5782072562       -2.5603825972        1.9992696938
 H         -0.3824696934       -4.1857372485        2.6579653741
 C          1.1839315511       -3.5965962515        1.3350199670
 H          1.7825262974       -3.4065252482        2.2310254870
 H          1.4512932205       -4.5817619136        0.9459146978
 H         -1.2725901666       -4.5252039005       -2.1524373726
 H         -1.0430397994       -2.8035645372       -2.5043200671
 H          1.0984069608       -3.8618945406       -2.6451197797
 H          0.8915048426       -4.6771430423       -1.0825355174
 O          1.6440466034       -1.6170405710       -1.8391827487
 C          2.2039043206       -0.4278858013       -1.4000738076
 O          2.3934394834        0.4144400023       -2.2987248934
 H          0.5155684755        0.8269564588        0.9767207817
 C          0.7617631973        1.8016169743        0.5781658424
 C          2.0822848593        2.0952437197        0.2578949850
 C          2.3738051370        3.3663269692       -0.2162143719
 C          1.3634041419        4.2999394325       -0.3881324165
 C          0.0450294864        3.9823221732       -0.1187238683
 C         -0.2540135962        2.7132767215        0.3640229125
 N         -1.6047009789        2.3236764163        0.5725185590
 S         -1.9591771521        0.6945678932        0.3872014522
 O         -1.7143830269       -0.0515250944        1.6065780039
 O         -1.3075052928        0.2323772866       -0.8113075692
 C         -3.7173513928        0.7994097017        0.1100231955
 C         -4.6035609451        0.3388732739        1.0636772208
 C         -5.9647914606        0.4572591922        0.8277034343
 C         -6.4133489886        1.0331826989       -0.3507077426
 C         -5.5110147213        1.4900323484       -1.3004532506
 C         -4.1499575691        1.3732178788       -1.0703426454
 H         -3.4099104575        1.7053799219       -1.7800862967
 H         -5.8629886898        1.9356147859       -2.2169571940
 H         -7.4725629004        1.1256945667       -0.5317308859
 H         -6.6679083358        0.1008268478        1.5631921641
 H         -4.2077788367       -0.1058678124        1.9626527630
 H         -2.0382826230        2.7216214720        1.3930142033
 H         -0.7473633169        4.6947474195       -0.2817289155
 H          1.6078675373        5.2841235014       -0.7579078927
 H          3.3914880113        3.6251364629       -0.4600399485
 C          3.1057017931        1.0027377592        0.4537239220
 H          3.2496763768        0.8610973360        1.5362945603
 C          4.4449930111        1.3008831976       -0.1838423990
 C          5.4710835305        2.1023893379        0.5589109237
 C          5.6703207898        0.6309346036        0.3596186283
 H          6.4266747227        0.2991674205       -0.3354468406
 H          5.5404344306       -0.0242943481        1.2087791949
 H          5.2148855687        2.4477032147        1.5491536225
 H          6.0966680149        2.7821238801        0.0005307190
 H          4.3749584688        1.4219342082       -1.2586211680
 O          2.4555249807       -1.2111791724        2.1267028259
