  62
        -98.94796771
 C         -1.2527796246       -0.7741612607        0.3975023671
 C         -2.0883799755       -0.5843842934       -0.7288949896
 C         -3.0455291403        0.5245306790       -0.6294866634
 C         -3.0366530109        1.3233067363        0.4529128717
 C         -3.9316763002        2.5105899250        0.6846651002
 C         -5.3087350214        2.1528013893        1.2608925671
 C         -6.2697274850        1.4797019481        0.2800338854
 H         -7.2572419140        1.4850079546        0.7456328728
 H         -6.3351446941        2.0778476937       -0.6293361035
 C         -5.9002380665        0.0334067559       -0.0778232563
 H         -5.1907774772       -0.3534597635        0.6571633270
 H         -6.7925411452       -0.5941735668       -0.0237164453
 C         -5.3071553660       -0.1417203171       -1.4758694118
 H         -6.0554655440        0.1196792838       -2.2272583399
 H         -5.0488031409       -1.1951778386       -1.6092146149
 C         -4.0444380479        0.6908249771       -1.7345899692
 H         -4.3040902508        1.7420905466       -1.8591453492
 H         -3.5788445050        0.3341654795       -2.6568156365
 H         -5.7674870808        3.0821144900        1.6064604273
 H         -5.1657647842        1.5088829735        2.1317352347
 H         -3.4134515709        3.1543299103        1.3990956250
 H         -4.0564894631        3.0619281607       -0.2479523430
 O         -2.1690325313        1.1487068379        1.4854067739
 C         -1.2643386656        0.0997637741        1.4840091678
 O         -0.5283397781        0.0536928536        2.4921594675
 O         -2.0398861860       -1.2988350740       -1.7640085172
 C         -0.2390283874       -1.9026815656        0.4096292610
 C          0.7895515889       -1.6953453499       -0.6767617819
 C          1.3230353338       -2.7284057084       -1.4371277397
 C          2.2907579050       -2.4646227101       -2.3913953536
 C          2.7678577518       -1.1811652255       -2.5881014717
 C          2.2443702313       -0.1421714795       -1.8273002389
 C          1.2581958343       -0.4069101088       -0.8916514694
 H          0.8381546428        0.4133738559       -0.3302570470
 N          2.7004697678        1.1771193223       -1.9746356248
 S          2.8454481368        2.1375508706       -0.6113267107
 O          1.5506914453        2.6041235814       -0.1816367451
 O          3.7856507917        3.1669961978       -1.0024932679
 C          3.5946216805        1.0734918928        0.6097115836
 C          4.9158755480        0.7216808092        0.4055552065
 C          5.5275620372       -0.1464629668        1.2937035129
 C          4.8084652673       -0.6533982627        2.3659440425
 C          3.4867379416       -0.2862613536        2.5605652952
 C          2.8688577014        0.5858866407        1.6767751948
 H          1.8387009797        0.8774682375        1.8130567921
 H          2.9190445338       -0.6737275197        3.3917725750
 H          5.2799333092       -1.3355625649        3.0556077151
 H          6.5576544794       -0.4280444050        1.1468958649
 H          5.4429262520        1.1462493674       -0.4334216652
 H          3.4847962402        1.2903546067       -2.5998794347
 H          3.5289297825       -0.9808929890       -3.3263049482
 H          2.6884477630       -3.2739662214       -2.9843988531
 H          0.9761115037       -3.7376880764       -1.2882014074
 H          0.2848374274       -1.8275027521        1.3749038463
 C         -0.9344421662       -3.2462495851        0.3363397714
 C         -0.3389446124       -4.4436026308        1.0122687173
 C         -1.5676685310       -3.7984737639        1.5770410529
 H         -2.5121330024       -4.3140803970        1.4888559451
 H         -1.4722588121       -3.2165175090        2.4826579846
 H         -0.4422537092       -5.4079041801        0.5380077880
 H          0.5913142436       -4.3079692161        1.5428325372
 H         -1.4595529337       -3.3915528806       -0.6003515163
