  62
        -98.93469899
 C         -1.7200912861       -0.3539020503        0.4859162193
 C         -2.8920353943       -0.5576666274        1.2544961265
 C         -4.1530579960       -0.7262873526        0.5113666876
 C         -4.1309356236       -0.6518740400       -0.8304802897
 C         -5.3000447160       -0.7342626119       -1.7726663299
 C         -5.8378012918        0.6702850347       -2.0954373694
 C         -6.8825888344        1.2023208911       -1.1151586314
 H         -7.0793709340        2.2429684404       -1.3832486388
 H         -7.8143359348        0.6484445059       -1.2479483881
 C         -6.4851727875        1.1424270832        0.3620670250
 H         -5.4479682691        1.4626766894        0.4774182751
 H         -7.1056527877        1.8579382934        0.9053389849
 C         -6.6738176753       -0.2501271963        0.9819394648
 H         -7.2631834478       -0.8658432515        0.3027553867
 H         -7.2554824036       -0.1608078773        1.9018559491
 C         -5.3756228184       -0.9831751183        1.3496267715
 H         -5.0766568854       -0.7052072774        2.3654042323
 H         -5.5674090004       -2.0614362097        1.3656829106
 H         -6.2868629849        0.6533157575       -3.0905721839
 H         -4.9859716535        1.3542978172       -2.1333938110
 H         -6.0801917463       -1.3706012697       -1.3656372196
 H         -4.9248796276       -1.1825736834       -2.6949498885
 O         -2.9869938636       -0.4237425015       -1.5307933277
 C         -1.7596107294       -0.2621966698       -0.9060635107
 O         -0.8183948011       -0.0474699262       -1.6909339496
 O         -2.8872478154       -0.5855034363        2.5150051802
 C         -0.4125339082       -0.1646630208        1.2326187823
 C          0.3359816276        1.0270162312        0.6909381186
 C         -0.3079339944        2.2620078340        0.6522913080
 C          0.3322327625        3.3788593252        0.1544564755
 C          1.6410878643        3.2969523472       -0.2895383155
 C          2.2970329552        2.0748654088       -0.2427671898
 C          1.6419274035        0.9487945228        0.2369529042
 H          2.1633673180        0.0070093584        0.2362290277
 N          3.6243902406        1.9461942217       -0.6816623655
 S          4.6988471538        1.0752158640        0.2613442226
 O          4.3770998105        1.1830569353        1.6657819676
 O          6.0062512559        1.5602499055       -0.1281956914
 C          4.5353066177       -0.6136903018       -0.2758086989
 C          4.5098704292       -0.8830903613       -1.6296206178
 C          4.4298019880       -2.2019264873       -2.0470251189
 C          4.3839778739       -3.2234194748       -1.1102943461
 C          4.4127611686       -2.9362256295        0.2459926660
 C          4.4899482887       -1.6188325661        0.6699279352
 H          4.5055533443       -1.3491430880        1.7140413242
 H          4.3734156940       -3.7313632785        0.9736505759
 H          4.3213739375       -4.2491323661       -1.4383216776
 H          4.4023275797       -2.4296421167       -3.1004086446
 H          4.5471004192       -0.0648170431       -2.3290440742
 H          4.0415244724        2.7988441467       -1.0260589603
 H          2.1465153282        4.1704687297       -0.6732155181
 H         -0.1860612553        4.3255973883        0.1195098375
 H         -1.3274401773        2.3300977431        1.0082922687
 H         -0.7206835726        0.0764973171        2.2646251240
 C          0.4427874805       -1.4199999123        1.3199755847
 C         -0.1721399198       -2.7846996642        1.2473745171
 C          0.6973108075       -2.2950014658        0.1303374373
 H          1.6799339520       -2.7284433663        0.0151415803
 H          0.2328561955       -2.0131078599       -0.8011405102
 H          0.2112554353       -3.5531475805        1.9015104233
 H         -1.2375813922       -2.8459117160        1.0791726001
 H          1.2636263321       -1.3006251722        2.0215809522
