  62
        -98.94249953
 C         -1.8427288200       -1.3197880546        0.4640902151
 C         -1.5401202163       -0.1112916125       -0.2132146445
 C         -2.4642289477        1.0103400033        0.0297450890
 C         -3.4900206162        0.8573396386        0.8847791806
 C         -4.5270326018        1.8997749153        1.1839953446
 C         -5.7381771053        1.7635848953        0.2508597954
 C         -5.3677915418        1.6517279947       -1.2280966741
 H         -4.8361182490        0.7116560923       -1.3929080169
 H         -6.3003384856        1.5949983850       -1.7937828092
 C         -4.5174882277        2.8143008309       -1.7591544940
 H         -4.5942244095        3.6679421931       -1.0847910629
 H         -4.9187726931        3.1282818627       -2.7251002755
 C         -3.0426046318        2.4732330617       -1.9801474169
 H         -2.9649390539        1.5627308525       -2.5801438708
 H         -2.5900550188        3.2833650021       -2.5583707794
 C         -2.1988920599        2.2911271821       -0.7116861871
 H         -1.1499888470        2.2505748249       -1.0201883519
 H         -2.3340206750        3.1534104028       -0.0555341805
 H         -6.3884154875        2.6274242526        0.4005129942
 H         -6.2949897258        0.8669908057        0.5332759525
 H         -4.8583401846        1.7681617556        2.2154487683
 H         -4.0838860641        2.8880557754        1.0784258434
 O         -3.7238327830       -0.3014400623        1.5506612371
 C         -2.9193171704       -1.4095994604        1.3551497965
 O         -3.2560683634       -2.4044629287        2.0269494770
 H          0.9364705427       -1.9462309622       -1.4737693768
 C          1.3004599154       -1.9176273205       -0.4590407116
 C          0.4494542278       -2.2422016844        0.5845291710
 C          0.9322663936       -2.1771089995        1.8875102223
 C          2.2410316871       -1.8053621650        2.1370778949
 C          3.0811382397       -1.4528813631        1.0952236682
 C          2.5961189277       -1.4881993650       -0.2057669581
 N          3.4104408962       -1.0571659457       -1.2656856131
 S          4.3776365447        0.2825085942       -1.0154488420
 O          4.4973375178        0.9142644642       -2.3121008783
 O          5.6237485726       -0.1393034084       -0.4197764660
 C          3.5332874472        1.3705807837        0.1267705444
 C          4.2938722382        1.9910098995        1.0989138069
 C          3.6810791006        2.8628164273        1.9837792755
 C          2.3181699067        3.0956556040        1.8864908506
 C          1.5690121815        2.4647349651        0.9063203300
 C          2.1763850393        1.5979842334        0.0106948635
 H          1.5871822169        1.0935382988       -0.7393734512
 H          0.5055691905        2.6308730492        0.8338898447
 H          1.8353194696        3.7679648939        2.5781398145
 H          4.2649879123        3.3520839298        2.7466879874
 H          5.3478407851        1.7693879361        1.1474334515
 H          2.9196286920       -0.9877991490       -2.1454944794
 H          4.0995250523       -1.1449241605        1.2714903366
 H          2.6077523647       -1.7744362055        3.1516395441
 H          0.2662882470       -2.4161913924        2.7049736878
 C         -0.9980024714       -2.5791527981        0.3343392890
 H         -1.3414714802       -3.2331671514        1.1506354395
 C         -1.2041076558       -3.3556966843       -0.9586339925
 C         -2.5892896036       -3.5857948526       -1.4838735318
 C         -1.6319943916       -2.7229423898       -2.2468853132
 H         -1.2152712380       -3.1104933569       -3.1654937331
 H         -1.7984778379       -1.6578512627       -2.2623196843
 H         -3.4018460799       -3.1057101514       -0.9573651307
 H         -2.8394613215       -4.5584703731       -1.8795902238
 H         -0.5132844231       -4.1900063171       -1.0367053665
 O         -0.5656476212        0.0510449643       -0.9921412082
