  62
        -98.93889265
 C          1.8641044204        1.0640109794       -0.2070946775
 C          2.9973305056        1.2104954032        0.6344128422
 C          4.2530061387        0.5878962355        0.1838010893
 C          4.2655515349       -0.0740291852       -0.9857649600
 C          5.4119679117       -0.8234360577       -1.6062525559
 C          5.3676169305       -2.3098219303       -1.2128235397
 C          6.0761570683       -2.6512105273        0.0974355738
 H          5.8614573003       -3.6992104783        0.3191343749
 H          7.1552050798       -2.5611397027       -0.0444126860
 C          5.6684632798       -1.8004372424        1.3031556354
 H          4.5844849699       -1.6708703006        1.3125777453
 H          5.9345294673       -2.3520040283        2.2070255223
 C          6.3599273806       -0.4293118778        1.3358824337
 H          6.8190050921       -0.2795283083        2.3152919485
 H          7.1726956608       -0.4224609697        0.6098523976
 C          5.4381285068        0.7739806688        1.0915597794
 H          6.0365700466        1.6106418502        0.7155137454
 H          5.0085679132        1.1019123014        2.0433250311
 H          4.3181590134       -2.6100770983       -1.1527009507
 H          5.8294073547       -2.8970177555       -2.0092844730
 H          5.2845020189       -0.7464384203       -2.6881056695
 H          6.3612073925       -0.3724621590       -1.3327681188
 O          3.1584356202       -0.1906557755       -1.7662914086
 C          1.9398824724        0.3609084161       -1.4088040764
 O          1.0385848646        0.1488920137       -2.2460114116
 O          2.9600713919        1.8422119580        1.7241983394
 C          0.5762137442        1.7162306348        0.2679869781
 C         -0.3705314799        0.7057142898        0.8699389319
 C         -0.7024242777        0.7539326832        2.2186733009
 C         -1.5932878586       -0.1569132000        2.7604250589
 C         -2.1720331668       -1.1318480785        1.9682543148
 C         -1.8407877480       -1.1911984709        0.6207120950
 C         -0.9529136537       -0.2744407451        0.0785003271
 H         -0.6938367344       -0.3327142467       -0.9681292174
 N         -2.4398449961       -2.1710733987       -0.1989148186
 S         -4.1153514296       -2.1179466220       -0.2560582499
 O         -4.6497829190       -2.7412205484        0.9288235189
 O         -4.4857373917       -2.7261392510       -1.5141154022
 C         -4.4972503342       -0.3757592133       -0.2538026071
 C         -4.9850555036        0.2211942615        0.8906234887
 C         -5.1924338454        1.5912391236        0.8938724673
 C         -4.9057461507        2.3362745315       -0.2391105516
 C         -4.4197751274        1.7205776937       -1.3823915639
 C         -4.2078795148        0.3519525894       -1.3909152551
 H         -3.8320988937       -0.1600558716       -2.2626857643
 H         -4.2003797712        2.3000742107       -2.2650107953
 H         -5.0624705194        3.4034581432       -0.2324389472
 H         -5.5714631199        2.0731881678        1.7804953287
 H         -5.1945976657       -0.3952018370        1.7491902071
 H         -2.0618598624       -2.1770910497       -1.1360329581
 H         -2.8734123403       -1.8465586731        2.3677447066
 H         -1.8403027258       -0.1066992784        3.8097848056
 H         -0.2475965490        1.5067626458        2.8457044982
 H          0.8851816717        2.4010540396        1.0686686879
 C         -0.1229360827        2.5225216929       -0.8101340434
 C         -1.1197123566        3.5637783287       -0.4019742470
 C          0.2049552878        3.9753501571       -0.9695071871
 H          0.2368395212        4.3888634975       -1.9663913060
 H          0.9395207184        4.3983685720       -0.2997743280
 H         -2.0026614467        3.6946141217       -1.0074348844
 H         -1.2853419337        3.7078891424        0.6546439220
 H         -0.3226880541        1.9572782342       -1.7108305464
