  62
        -98.94034366
 C         -2.1787792908       -0.7297814208        0.1769960218
 C         -3.0252168687       -0.1071494669        1.1289563247
 C         -3.8327377112        1.0195417279        0.6433843347
 C         -3.6812585631        1.4345433855       -0.6273125020
 C         -4.4753372210        2.5327149086       -1.2717571895
 C         -5.7354055999        1.9793620651       -1.9521444288
 C         -6.5571841805        1.0444530689       -1.0646254081
 H         -7.4352997789        0.7399959718       -1.6380921888
 H         -5.9766497704        0.1409403895       -0.8641133539
 C         -7.0055133786        1.6636311517        0.2666587584
 H         -6.9331367750        2.7505026157        0.2128386714
 H         -8.0563186364        1.4165113937        0.4315257770
 C         -6.2342825272        1.1653275472        1.4904174985
 H         -6.2268062827        0.0722492579        1.4991958650
 H         -6.7674423287        1.4949162489        2.3861508740
 C         -4.7869014112        1.6584213406        1.6127389524
 H         -4.7598367502        2.7462591791        1.5210232101
 H         -4.4262354391        1.3888180570        2.6099521327
 H         -6.3544526517        2.8208687071       -2.2683059773
 H         -5.4323769410        1.4259808906       -2.8439569148
 H         -4.7497560681        3.2670466210       -0.5167858471
 H         -3.8483701914        3.0143987694       -2.0239126489
 O         -2.8045234669        0.8631303526       -1.4897661807
 C         -2.0357528546       -0.2349771162       -1.1206299254
 O         -1.2844006727       -0.6470390911       -2.0219697922
 H          0.2079491971        0.1408375072        1.2264605735
 C          0.7492126061       -0.5921953593        0.6392190189
 C          0.0894151292       -1.7443313727        0.2270990043
 C          0.7947735403       -2.6769478645       -0.5205740678
 C          2.1187056937       -2.4491253209       -0.8545724867
 C          2.7650490442       -1.2941561044       -0.4566415276
 C          2.0708714925       -0.3553827784        0.2959785447
 N          2.7099595026        0.8337555807        0.6866951967
 S          4.2290379534        0.7410542616        1.3921152158
 O          4.4044712973       -0.4998931743        2.1107860933
 O          4.3577531030        1.9554277782        2.1682097351
 C          5.3523435296        0.8139979640        0.0129756657
 C          6.3126891628       -0.1657673966       -0.1459440634
 C          7.1843326036       -0.0813965937       -1.2206082213
 C          7.0814063447        0.9760358257       -2.1113108685
 C          6.1131459396        1.9535435299       -1.9357282658
 C          5.2395467392        1.8757489223       -0.8629850537
 H          4.4754781438        2.6153522871       -0.6901503280
 H          6.0356125290        2.7742660009       -2.6306004478
 H          7.7596017356        1.0393277778       -2.9475936806
 H          7.9380650052       -0.8398167419       -1.3587151189
 H          6.3511988628       -0.9723988790        0.5687505533
 H          2.1143031635        1.4693515551        1.1967746424
 H          3.7929572784       -1.1109533607       -0.7234609307
 H          2.6531025741       -3.1800084832       -1.4421598210
 H          0.3039882840       -3.5736982871       -0.8606321170
 C         -1.3512426222       -1.9145490308        0.6412894488
 H         -1.3892755677       -1.8556063027        1.7428529763
 C         -1.9351935567       -3.2683383147        0.2652000577
 C         -3.4035261446       -3.4336524117        0.0139540024
 C         -2.4302372556       -3.5724695230       -1.1159178050
 H         -2.2523015662       -4.5593150365       -1.5176784629
 H         -2.3739945742       -2.7846452932       -1.8502352574
 H         -4.0206450791       -2.5474710871        0.0514296530
 H         -3.8918193799       -4.3206822728        0.3889328167
 H         -1.4481463796       -4.0798990346        0.7972927675
 O         -3.0964304523       -0.4741542449        2.3332296268
