  62
        -98.93852642
 C         -1.7161744280       -1.6671542236        0.1138231741
 C         -1.8079684491       -0.7022580301       -0.9151922852
 C         -2.8456463659        0.3379787514       -0.7596836484
 C         -3.6202028465        0.3465776991        0.3404730525
 C         -4.7716495070        1.2380278186        0.7582201593
 C         -5.1470273878        2.4646594875       -0.0675189399
 C         -4.1521343700        3.6223358482        0.0311165092
 H         -4.4177481466        4.3713554008       -0.7176748165
 H         -4.2623086467        4.0840158045        1.0155310845
 C         -2.6811931438        3.2483749873       -0.1347737950
 H         -2.0895960738        4.1507943925        0.0371326635
 H         -2.3969705732        2.5221971319        0.6288318212
 C         -2.2951804822        2.6982211869       -1.5048600067
 H         -2.5573123284        3.4211212291       -2.2802791039
 H         -1.2093256009        2.5691009138       -1.5168492845
 C         -2.9253656859        1.3467587490       -1.8708228629
 H         -3.9516512566        1.4706490251       -2.2073723034
 H         -2.3569561439        0.9262500644       -2.7057088797
 H         -6.1061151789        2.8209622920        0.3179506908
 H         -5.3135933180        2.1804407027       -1.1025641336
 H         -5.6429732566        0.5763139613        0.8136421301
 H         -4.5591469217        1.5474981784        1.7866544483
 O         -3.4715044476       -0.5878200068        1.3255207335
 C         -2.5434533834       -1.6047297474        1.2388867532
 O         -2.5505564404       -2.3856572937        2.2111135239
 H          0.9566912573       -1.3197258792       -1.3903662045
 C          1.4002569778       -1.6265336420       -0.4552585513
 C          0.6578789611       -2.4007451922        0.4252933294
 C          1.2286744497       -2.7551172368        1.6423019989
 C          2.5153199885       -2.3562550320        1.9602932124
 C          3.2572304364       -1.5950914405        1.0746411436
 C          2.6877676992       -1.2186408151       -0.1356022850
 N          3.4229924244       -0.4403994630       -1.0508922502
 S          4.1164672596        0.9917668831       -0.5398686281
 O          4.5499012919        1.6571543287       -1.7464161937
 O          5.1402531624        0.6999997715        0.4316837198
 C          2.8002905476        1.9194119462        0.2264738438
 C          2.1144459478        2.8473870496       -0.5314010853
 C          1.0707477046        3.5490807777        0.0492058818
 C          0.7196235017        3.2977395393        1.3666571588
 C          1.4127533932        2.3569180549        2.1120777407
 C          2.4675409990        1.6624834140        1.5416358171
 H          3.0370219480        0.9362138550        2.0974192257
 H          1.1367792952        2.1621512732        3.1361821227
 H         -0.0967179144        3.8399892642        1.8171044751
 H          0.5356576974        4.2874331700       -0.5263511539
 H          2.4200490839        3.0125334878       -1.5521761330
 H          2.9295243053       -0.2879790794       -1.9192928654
 H          4.2615476626       -1.2788983459        1.3066901898
 H          2.9481618231       -2.6452399907        2.9061622259
 H          0.6512786687       -3.3400591805        2.3437876294
 C         -0.7454771343       -2.8386762285        0.0808118716
 H         -1.0847175233       -3.5178860156        0.8741003580
 C         -0.7850244609       -3.5896243824       -1.2365038860
 C         -0.2830092274       -5.0000398707       -1.2825309301
 C         -1.7508473140       -4.7219560481       -1.4035644947
 H         -2.2261503486       -4.8566466012       -2.3636711164
 H         -2.3873236499       -4.9644259712       -0.5647146665
 H          0.2528914278       -5.3283190364       -2.1598957485
 H          0.0758693372       -5.4330892499       -0.3610047769
 H         -0.6060788942       -2.9627013289       -2.0997376581
 O         -1.0792019996       -0.6924297581       -1.9438194246
