  62
        -98.93841847
 C          2.5255406941        0.0834951870        0.4373260239
 C          2.1956425519       -0.6008717159       -0.7541992885
 C          1.8200531920       -2.0228879858       -0.6259451555
 C          1.8122174214       -2.5843402156        0.5969396383
 C          1.4630645587       -3.9982876145        0.9848738941
 C         -0.0465981684       -4.2712275743        0.9703333241
 C         -0.7683405923       -3.7983299197       -0.2878770796
 H         -1.8318924186       -4.0172497593       -0.1568632250
 H         -0.6779462153       -2.7133192189       -0.3666652418
 C         -0.3117083489       -4.4599645093       -1.5867437694
 H         -0.4000413177       -5.5441977969       -1.4861504300
 H         -1.0057931238       -4.1405439094       -2.3678732996
 C          1.1072884083       -4.1245380016       -2.0565326820
 H          1.1709290934       -4.3937363910       -3.1147868751
 H          1.8520149164       -4.7255086204       -1.5407776313
 C          1.4739032769       -2.6478702566       -1.9550764574
 H          2.3383931168       -2.4524495387       -2.6007230938
 H          0.6605542098       -2.0414553623       -2.3705463804
 H         -0.2006697575       -5.3443787043        1.1027778903
 H         -0.4947209416       -3.7551956308        1.8237647416
 H          1.9844292669       -4.7030955877        0.3437505473
 H          1.8315762295       -4.1385554231        2.0040173357
 O          2.1364438196       -1.8802540949        1.7224244244
 C          2.4704531231       -0.5420501885        1.6794185299
 O          2.7062473060       -0.0290390605        2.7955178709
 H          0.2578553017        1.0540244840        0.6530623921
 C          0.4245856533        1.9163338863        0.0236352484
 C          1.7244309316        2.3382261076       -0.2242131113
 C          1.9137364794        3.4698420238       -1.0068144703
 C          0.8254524521        4.1431761324       -1.5364403084
 C         -0.4639975655        3.6964999687       -1.3177959248
 C         -0.6632733460        2.5597536943       -0.5395480614
 N         -1.9555178163        2.0386435756       -0.3607685526
 S         -2.2418835096        0.6797708076        0.5779758391
 O         -1.9997967718        0.9558577462        1.9797723267
 O         -1.5360131710       -0.4378052354        0.0072586738
 C         -3.9929394116        0.4985076643        0.2969000268
 C         -4.8877791385        1.0536551362        1.1918429712
 C         -6.2463227122        0.9356280480        0.9431365610
 C         -6.6847204832        0.2694719628       -0.1913573172
 C         -5.7749354339       -0.2855207484       -1.0791413575
 C         -4.4155087359       -0.1707528798       -0.8358021849
 H         -3.6703068788       -0.5910362478       -1.4912683219
 H         -6.1188508019       -0.8062242413       -1.9582261599
 H         -7.7421832006        0.1793392779       -0.3833308142
 H         -6.9557663056        1.3624236432        1.6336383522
 H         -4.5007791615        1.5522492264        2.0660430203
 H         -2.6908703965        2.7278138126       -0.3143498613
 H         -1.3089446526        4.2099958594       -1.7490047896
 H          0.9864329875        5.0245139831       -2.1386154500
 H          2.9129161102        3.8232428951       -1.2035083237
 C          2.8632153391        1.5615398133        0.3945511738
 H          2.9644035099        1.8801711918        1.4437813178
 C          4.1847734309        1.7825515638       -0.3140854586
 C          5.1011220268        2.8895655499        0.1104204701
 C          5.4552088568        1.4658027068        0.4142963209
 H          6.2626039890        1.0033143915       -0.1330953557
 H          5.3647121522        1.1200967421        1.4342138324
 H          5.6714477857        3.4056590463       -0.6471686265
 H          4.7839847487        3.5155452615        0.9309576954
 H          4.1340128619        1.5305306095       -1.3670652809
 O          2.2154165045       -0.0535381695       -1.8888346638
