  62
        -98.94496273
 C         -1.8798641120       -0.7284612020       -0.1600178974
 C         -2.4437259490       -0.0950310284        0.9725831154
 C         -3.5111414025        0.8768798345        0.7019302406
 C         -3.8536129572        1.1381254253       -0.5730908851
 C         -4.9544608995        2.0688507222       -0.9903148599
 C         -6.2875057232        1.3218190209       -1.1370724692
 C         -6.6347756089        0.4369228349        0.0601286483
 H         -7.6085826397       -0.0145517856       -0.1411982881
 H         -5.9096846379       -0.3776324370        0.1231066544
 C         -6.6824319973        1.1772039634        1.4041087977
 H         -7.5745784975        0.8592015480        1.9476750192
 H         -6.7733707017        2.2505244724        1.2331512458
 C         -5.4855896166        0.9092898489        2.3184164670
 H         -5.7226942481        1.2997015085        3.3117007518
 H         -5.3352028285       -0.1686365426        2.4178875566
 C         -4.1582376230        1.5432876246        1.8835704569
 H         -4.3039505306        2.6089007880        1.6940537593
 H         -3.4519091701        1.4356552413        2.7122003077
 H         -7.0795038168        2.0570428347       -1.2906978426
 H         -6.2335810460        0.6895841418       -2.0263473673
 H         -4.6862651390        2.5086296347       -1.9525009146
 H         -5.0507961637        2.8639661505       -0.2533504982
 O         -3.2571459559        0.5442402416       -1.6377842115
 C         -2.2623754279       -0.4080338023       -1.4629075146
 O         -1.8089899732       -0.8775095587       -2.5227052681
 O         -2.0657873880       -0.3260536079        2.1536060025
 C         -0.7881876070       -1.7630662706        0.0454453001
 C          0.4944038505       -1.3009077460       -0.6015367942
 C          1.2756249841       -2.1059265539       -1.4192559215
 C          2.4394830471       -1.6120280916       -1.9845079871
 C          2.8543437788       -0.3165646905       -1.7403150540
 C          2.0906557581        0.4908760544       -0.9057593558
 C          0.9279168606       -0.0064562438       -0.3389654046
 H          0.3334941688        0.6257424123        0.3091927001
 N          2.5117974633        1.8034037245       -0.6349829973
 S          4.1288470439        2.0540592416       -0.2861031016
 O          4.1570104163        3.2360887594        0.5468132760
 O          4.8841541602        2.1319298690       -1.5117546963
 C          4.6380244648        0.6192618370        0.6447520209
 C          3.9781272186        0.3412019263        1.8255143171
 C          4.3403586347       -0.7847403478        2.5465336288
 C          5.3518307583       -1.6091573067        2.0773685657
 C          6.0084435978       -1.3133246656        0.8931588468
 C          5.6483932324       -0.1896862031        0.1663935217
 H          6.1295825131        0.0758021291       -0.7607558276
 H          6.7957749285       -1.9548916516        0.5318244288
 H          5.6290280427       -2.4863934015        2.6402826348
 H          3.8296749878       -1.0156409156        3.4677245678
 H          3.1983859155        1.0033995082        2.1670303388
 H          1.9133881202        2.3057940386        0.0034445010
 H          3.7469652451        0.0878638215       -2.1891921288
 H          3.0297344472       -2.2449151001       -2.6291925765
 H          0.9684947765       -3.1176978781       -1.6252920500
 H         -0.6246847034       -1.7997989481        1.1329774138
 C         -1.2520387954       -3.1260846580       -0.4225200187
 C         -0.7037513453       -4.3686392867        0.2111776016
 C         -2.1145771929       -3.9466607866        0.4875766443
 H         -2.9214731648       -4.5196132817        0.0558094523
 H         -2.3455636274       -3.5327234367        1.4584517098
 H         -0.5431536429       -5.2365509549       -0.4102625474
 H          0.0237350076       -4.2483267586        0.9993244426
 H         -1.4819709380       -3.1465387456       -1.4818221397
