  62
        -98.93802638
 C          1.9648225598        1.0672500509       -0.2040248297
 C          2.3133595100       -0.2755295091       -0.4951789496
 C          3.5295928602       -0.7774156787        0.1713285504
 C          4.2071123601        0.0188428615        1.0160142202
 C          5.4844518902       -0.3506487182        1.7119844602
 C          6.7082304101        0.0508273819        0.8765000501
 C          6.6342677601       -0.3974094682       -0.5831251099
 H          5.8193830299        0.1350816316       -1.0787933199
 H          7.5628093300       -0.0861003981       -1.0664751600
 C          6.4400152103       -1.9080191883       -0.7746022697
 H          7.1219493103       -2.2530629582       -1.5546254097
 H          6.7041287005       -2.4350288581        0.1429294603
 C          5.0297706704       -2.3170343686       -1.2043182196
 H          4.7242292002       -1.7265106688       -2.0718212096
 H          5.0590752406       -3.3644061786       -1.5167208695
 C          3.9420809704       -2.1910579487       -0.1300851395
 H          3.0442691605       -2.6917963189       -0.5054161394
 H          4.2629415206       -2.7016197685        0.7804259705
 H          7.5990645602       -0.3724144778        1.3440469900
 H          6.7981569299        1.1393544720        0.8958000099
 H          5.5192467202        0.1755395819        2.6674082701
 H          5.4939505704       -1.4228187282        1.8982650703
 O          3.8233050299        1.2903906114        1.2964293201
 C          2.7067105397        1.8415959912        0.6932405501
 O          2.4790387195        3.0222321911        1.0259647500
 H         -0.3323824199       -0.5482183295        0.1587314706
 C         -0.8655131500        0.3306980104        0.4872486105
 C         -0.4498934203        1.5942326705        0.0863807604
 C         -1.1547609205        2.7045766504        0.5395398703
 C         -2.2446845904        2.5599889703        1.3786906404
 C         -2.6675418201        1.2996401902        1.7594023205
 C         -1.9748704599        0.1828572103        1.3069374706
 N         -2.4062553697       -1.1231171197        1.6408596908
 S         -3.1707694296       -1.9383178400        0.3898190909
 O         -3.6681125093       -3.1659436100        0.9701093311
 O         -2.2749459396       -2.0596788900       -0.7279286291
 C         -4.5398950798       -0.8730716503       -0.0339192491
 C         -5.7632358397       -1.0785514805        0.5735852810
 C         -6.8012189799       -0.2005464307        0.3055090010
 C         -6.5946683402        0.8704478092       -0.5508655092
 C         -5.3597391203        1.0650161094       -1.1504182293
 C         -4.3192560501        0.1868863496       -0.8910977792
 H         -3.3478654401        0.3026258698       -1.3442873993
 H         -5.1990880605        1.8971121294       -1.8167561594
 H         -7.4009620003        1.5572676590       -0.7543697192
 H         -7.7637437299       -0.3517639409        0.7670301011
 H         -5.8782011595       -1.9260272404        1.2301344811
 H         -3.0049210496       -1.1489806298        2.4558379008
 H         -3.5231171500        1.1773748701        2.4069191006
 H         -2.7728059405        3.4323749602        1.7309746003
 H         -0.8254042007        3.6897012404        0.2438218902
 C          0.7567238796        1.7744372406       -0.7990167497
 H          1.0157217894        2.8456647707       -0.7734050299
 C          0.4925080896        1.4290664904       -2.2569690997
 C         -0.5342945903        0.4469839402       -2.7236577995
 C         -0.7639630705        1.9135230701       -2.9208999397
 H         -0.7003203207        2.3166613900       -3.9202802297
 H         -1.4983100906        2.3965188300       -2.2933138497
 H         -0.2809181902       -0.1593678699       -3.5805949095
 H         -1.1127455501       -0.0941584599       -1.9916471594
 H          1.4047800495        1.4759679705       -2.8444297297
 O          1.6697476101       -1.0311334593       -1.2660384295
