  62
        -98.94490671
 C         -1.9254078351       -0.1544113664        0.0661159575
 C         -2.9386100678       -1.0080601385        0.5649885021
 C         -4.2514546257       -0.3881021762        0.7731981061
 C         -4.4176020327        0.9227099417        0.5188938862
 C         -5.6893285884        1.7049359763        0.7060503287
 C         -6.6630407810        1.6040936125       -0.4761501657
 C         -7.3790535452        0.2601071323       -0.6160854694
 H         -7.8418899320       -0.0041544315        0.3352263830
 H         -8.1828831692        0.3996556069       -1.3416653413
 C         -6.4799303557       -0.8899515342       -1.0910034216
 H         -5.5661994715       -0.4811813951       -1.5287130944
 H         -6.9893983880       -1.4485838073       -1.8794402747
 C         -6.1006190797       -1.8906669775        0.0006389110
 H         -5.4352937478       -2.6389230081       -0.4375276662
 H         -6.9973340989       -2.4036954114        0.3551438673
 C         -5.3848837185       -1.2681406490        1.2066272553
 H         -6.0927087770       -0.7062559976        1.8155007872
 H         -4.9656159668       -2.0761038186        1.8111722860
 H         -6.1180795238        1.8247812165       -1.3969658017
 H         -7.4184855478        2.3819910716       -0.3432233689
 H         -5.3962257740        2.7505127447        0.8225466165
 H         -6.1890326678        1.3801060678        1.6190915167
 O         -3.4098870163        1.7159875353        0.0667964106
 C         -2.1475239274        1.1984212782       -0.1901901075
 O         -1.3328198106        2.0320538490       -0.6292935851
 O         -2.7518717680       -2.2257787780        0.8294526139
 C         -0.5483180604       -0.7359651696       -0.2015001618
 C          0.4843184034       -0.0001407657        0.6144769830
 C          0.3233322604        0.0506561942        1.9978778044
 C          1.2221012527        0.7365168763        2.7898094749
 C          2.3100811137        1.3768413495        2.2212369099
 C          2.4840309575        1.3283260020        0.8443308389
 C          1.5771664754        0.6370255921        0.0501709765
 H          1.7300542380        0.6336109895       -1.0154522828
 N          3.5707471623        1.9826185105        0.2409280537
 S          4.4917321300        1.2027551360       -0.9150884240
 O          5.6935856825        2.0003950381       -1.0193843471
 O          3.7367049999        1.0256630368       -2.1283434281
 C          4.8734064768       -0.3763570968       -0.1795896805
 C          5.9274603725       -0.4460441104        0.7107603732
 C          6.1930525368       -1.6493883112        1.3433553057
 C          5.3972058914       -2.7550510507        1.0838468220
 C          4.3430283379       -2.6683872243        0.1878986507
 C          4.0752575981       -1.4685595425       -0.4525789561
 H          3.2678981696       -1.3645748211       -1.1582442245
 H          3.7262658651       -3.5295375572       -0.0144467819
 H          5.6007757119       -3.6909638337        1.5798881495
 H          7.0155479703       -1.7214763949        2.0365907278
 H          6.5266108650        0.4346008540        0.8767319842
 H          4.1627118554        2.4847192813        0.8864919188
 H          3.0102517798        1.9208080745        2.8368969110
 H          1.0788250359        0.7726564080        3.8592038869
 H         -0.5283997226       -0.4476513890        2.4405511070
 H         -0.5987724479       -1.7734812074        0.1608898337
 C         -0.2610757242       -0.7547270866       -1.6873719084
 C          0.6494933671       -1.7957064029       -2.2639715785
 C         -0.8250961886       -1.8626543716       -2.5235328051
 H         -1.1892621213       -1.6275949773       -3.5124496364
 H         -1.3991020730       -2.6241565282       -2.0159120150
 H          1.3059344016       -1.5144400653       -3.0744356610
 H          1.0680334735       -2.5216784448       -1.5829963797
 H         -0.2459606273        0.2370128092       -2.1263757573
