  62
        -98.93468051
 C         -1.9566974105       -0.9413185619       -0.2776815754
 C         -2.5384769808       -0.2566158434        0.8192771525
 C         -2.7995742067        1.1809243846        0.6540129253
 C         -2.4494294288        1.7792112267       -0.4968429534
 C         -2.5516804942        3.2372247081       -0.8718403240
 C         -3.8264572349        3.9884710099       -0.4663853617
 C         -5.1095097993        3.1450911276       -0.4942686838
 H         -5.8674131777        3.6710755930       -1.0775933848
 H         -4.9177375025        2.1925229393       -0.9911476641
 C         -5.6845012614        2.8866557021        0.9002384030
 H         -6.7396518968        2.6211553863        0.8010732595
 H         -5.6323233580        3.8121500158        1.4775210217
 C         -5.0085551237        1.7663453152        1.6896047005
 H         -5.2423024655        0.7999273151        1.2351161963
 H         -5.4347838664        1.7591267864        2.6955542931
 C         -3.4784620860        1.8660606598        1.8055551685
 H         -3.1552878345        2.8995635672        1.9043328927
 H         -3.1713161971        1.3189753256        2.7010373151
 H         -3.9270699242        4.8295629660       -1.1544707365
 H         -3.6989875194        4.4108194575        0.5292082540
 H         -2.4434706512        3.2579192866       -1.9592723756
 H         -1.6798793020        3.7503846428       -0.4543452497
 O         -1.8874185522        1.0887788440       -1.5271415900
 C         -1.6162399175       -0.2702817842       -1.4514865447
 O         -1.1003954212       -0.7265026260       -2.4916496749
 O         -2.8276848192       -0.8317111524        1.9040196451
 C         -1.6488620021       -2.4115597904       -0.0578844525
 C         -0.2722666489       -2.5721244176        0.5463913058
 C         -0.0640752406       -3.4217287097        1.6268834987
 C          1.1908800166       -3.5434438858        2.1958524498
 C          2.2542602550       -2.8011918008        1.7157052865
 C          2.0570915912       -1.9530468387        0.6316041219
 C          0.8060621567       -1.8618693327        0.0400547882
 H          0.6774333720       -1.2045392768       -0.8070462647
 N          3.1101815274       -1.1816829485        0.1158040277
 S          2.7518599971        0.3848515309       -0.4130605439
 O          1.7324148000        0.9712009660        0.4281732140
 O          2.4878687306        0.3488122696       -1.8291431875
 C          4.3211285749        1.1845789515       -0.1241713790
 C          4.5286132109        1.8489423687        1.0699755152
 C          5.7620902494        2.4357415193        1.3056711112
 C          6.7631197941        2.3455495819        0.3500720199
 C          6.5398595834        1.6764392757       -0.8442120381
 C          5.3085676543        1.0880535879       -1.0864715977
 H          5.0841096098        0.5651242651       -2.0015879752
 H          7.3189456890        1.6109577626       -1.5863304428
 H          7.7221568455        2.8024278808        0.5361074787
 H          5.9366705406        2.9593701911        2.2316903457
 H          3.7173451244        1.8998522172        1.7785098484
 H          3.9375690953       -1.2017186152        0.6966000136
 H          3.2286194313       -2.8739125574        2.1743663886
 H          1.3381227895       -4.2056861568        3.0352824339
 H         -0.8989616857       -3.9726401621        2.0333529473
 H         -2.3777795246       -2.7556562480        0.6899113050
 C         -1.7820633573       -3.2814081314       -1.2915914271
 C         -2.0746045504       -4.7420700034       -1.1293925653
 C         -3.1266363761       -3.8223907409       -1.6708448349
 H         -3.3792391088       -3.8778612383       -2.7188121411
 H         -3.9621152338       -3.5717801595       -1.0333928527
 H         -1.6013657245       -5.4368923298       -1.8057348040
 H         -2.2030531025       -5.1207614336       -0.1270322027
 H         -1.1206196194       -2.9848405447       -2.0953056490
