  62
        -98.94121261
 C         -1.4945538948       -1.5815281356       -0.2155060574
 C         -2.6567086022       -1.2638781518        0.5292360754
 C         -3.4911782398       -0.1523621628        0.0349983296
 C         -3.1081502689        0.4949124537       -1.0809013400
 C         -3.7712675302        1.6740357579       -1.7410471736
 C         -3.5088141599        3.0015283876       -1.0061213719
 C         -3.5292602358        2.9130328199        0.5183342059
 H         -2.8256130798        2.1448305146        0.8449224220
 H         -3.1754678448        3.8692741894        0.9127222115
 C         -4.9005727048        2.6422792963        1.1329838965
 H         -5.5715998551        3.4684994990        0.8861217427
 H         -4.7765742368        2.6286373529        2.2188332268
 C         -5.5748248719        1.3366734854        0.7117591276
 H         -5.9475399069        1.4056111840       -0.3065932120
 H         -6.4501941103        1.2004405513        1.3538551749
 C         -4.7162017181        0.0869008572        0.8833834096
 H         -4.3727929874        0.0305383429        1.9224068344
 H         -5.3545185168       -0.7940865300        0.7419665786
 H         -2.5223347798        3.3634263883       -1.3048609931
 H         -4.2472093473        3.7323708085       -1.3396569775
 H         -3.3563383816        1.7461790553       -2.7489520153
 H         -4.8367997489        1.4860674549       -1.8385257282
 O         -1.9790915645        0.1572652122       -1.7647079585
 C         -1.1468871735       -0.8733249340       -1.3645930063
 O         -0.1635864424       -1.0439877095       -2.1111495598
 O         -2.9884720482       -1.8830603302        1.5751666736
 C         -0.5970285762       -2.6919445244        0.3083698278
 C          0.6533954658       -2.0371362183        0.8396080231
 C          0.6760072618       -1.5524112010        2.1444500781
 C          1.7682550194       -0.8502241458        2.6197398654
 C          2.8498346486       -0.5922440059        1.7953345927
 C          2.8288241263       -1.0611458982        0.4887327663
 C          1.7504501587       -1.8013292863        0.0252222833
 H          1.7464090474       -2.1487548721       -0.9954982739
 N          3.8920305483       -0.7396788774       -0.3771511629
 S          4.3153069792        0.8815323112       -0.4241262329
 O          4.7953089208        1.1202393191       -1.7676185784
 O          5.2626647379        1.1539278430        0.6296181725
 C          2.8119499952        1.7978521011       -0.1187226072
 C          1.7106745005        1.5596225134       -0.9165542854
 C          0.5424451341        2.2625434203       -0.6707933399
 C          0.4923555932        3.1876114030        0.3598580472
 C          1.6089814465        3.4203552111        1.1476664607
 C          2.7796376530        2.7189792638        0.9090442346
 H          3.6682049911        2.8625716616        1.5021887051
 H          1.5684453023        4.1412831631        1.9482037615
 H         -0.4230886929        3.7261761024        0.5490882325
 H         -0.3236544972        2.0666320233       -1.2831722745
 H          1.7517277867        0.8270949598       -1.7075062177
 H          3.7575428084       -1.0927815861       -1.3142170448
 H          3.7018397053       -0.0271895801        2.1375904917
 H          1.7738672696       -0.4876704347        3.6362080655
 H         -0.1842680735       -1.7188539127        2.7771488200
 H         -1.1414152287       -3.1327750177        1.1535802757
 C         -0.3391437348       -3.7711452494       -0.7212127313
 C          0.2479829870       -5.0766971952       -0.2775466878
 C         -1.1845104561       -5.0080133384       -0.7115977972
 H         -1.4599903304       -5.4506680983       -1.6571604608
 H         -1.9518638389       -5.0836072098        0.0448093906
 H          0.9586712618       -5.5695941864       -0.9231923490
 H          0.4537779365       -5.1970136624        0.7753152866
 H         -0.0439910602       -3.3868903087       -1.6896005370
