  62
        -98.93854180
 C          2.2919802939        0.7891222893       -0.4361797186
 C          1.5157154418       -0.2330326960       -1.0394323081
 C          1.9350606862       -1.6196069986       -0.7789730196
 C          2.9959078498       -1.8614397634        0.0077798132
 C          3.4927024985       -3.2216129883        0.4003304573
 C          2.8514991394       -3.6938832516        1.7123186551
 C          1.3287076011       -3.5566428987        1.7480634128
 H          0.9889574252       -3.9661641161        2.7024559447
 H          1.0551125381       -2.4981269593        1.7452400094
 C          0.5963954229       -4.2645426864        0.5996110791
 H          1.2505835652       -5.0088385505        0.1427406247
 H         -0.2644113934       -4.7953117406        1.0119649279
 C          0.0615412451       -3.3183628623       -0.4770117700
 H         -0.6484289854       -3.8718502281       -1.0979356815
 H         -0.4851010727       -2.5043828426        0.0062905603
 C          1.1192173685       -2.7133149096       -1.4097075712
 H          0.5976732935       -2.2559365781       -2.2551522490
 H          1.7674854972       -3.5037186907       -1.7941226292
 H          3.1264253354       -4.7383064876        1.8729300968
 H          3.2658235765       -3.1033825299        2.5329662055
 H          4.5744016232       -3.1655653101        0.5357882924
 H          3.2723984170       -3.9277233386       -0.3980083708
 O          3.7231145872       -0.8657658458        0.5733192874
 C          3.3832195068        0.4592514534        0.3823457782
 O          4.1346589061        1.2540001483        0.9866756332
 O          0.5120302170       -0.0425290729       -1.7752765822
 C          2.0385902553        2.2898981283       -0.5112991634
 C          0.8586551461        2.7344627162        0.3269808302
 C          0.9639814181        3.8840763749        1.1043044420
 C         -0.0874147610        4.2940366316        1.9030689571
 C         -1.2499349543        3.5472419710        1.9698853658
 C         -1.3679086110        2.3985816938        1.1955048472
 C         -0.3303679697        2.0229033085        0.3545939155
 H         -0.4454585834        1.1461906476       -0.2550163740
 N         -2.5330096134        1.6190816935        1.2491790443
 S         -2.4908685745       -0.0635803804        1.3206174828
 O         -3.3507216849       -0.4125492660        2.4361000626
 O         -1.1387553805       -0.5577431760        1.3865165525
 C         -3.3125039633       -0.5523538628       -0.1835809560
 C         -2.6054430134       -0.6968195273       -1.3595964197
 C         -3.2922731659       -1.0517468826       -2.5112921623
 C         -4.6628512110       -1.2519918082       -2.4718978598
 C         -5.3590814302       -1.1021340919       -1.2819244858
 C         -4.6799602439       -0.7487413817       -0.1280653233
 H         -5.1783431615       -0.6337223933        0.8204232325
 H         -6.4252672126       -1.2593545627       -1.2503648462
 H         -5.1895502128       -1.5271056619       -3.3722069736
 H         -2.7454282533       -1.1663430262       -3.4337097597
 H         -1.5383043150       -0.5390633490       -1.3776909260
 H         -3.2237821788        1.9663261289        1.8990308567
 H         -2.0592166226        3.8469903491        2.6189817222
 H          0.0070609935        5.1890962460        2.4993653193
 H          1.8859020369        4.4476751792        1.0909352766
 H          2.9318365373        2.7143051120       -0.0262373779
 C          1.9828803603        2.9629477331       -1.8815301332
 C          2.4800068025        2.3154408191       -3.1364869798
 C          1.0210804362        2.6214768745       -2.9759620736
 H          0.5990160254        3.4348801060       -3.5481533084
 H          0.3568926466        1.7885410930       -2.8198636803
 H          3.0713174067        2.9037204383       -3.8228156630
 H          2.7801702698        1.2792952791       -3.0757576880
 H          2.2054870253        4.0221987597       -1.7820994760
