  62
        -98.93929751
 C         -2.1919959152       -0.7078823067        0.5218945092
 C         -1.9116366839        0.0557150600       -0.6344922008
 C         -1.7879517765        1.5142808612       -0.4516062712
 C         -1.9833066206        2.0322195444        0.7749672774
 C         -1.9555387471        3.4824995623        1.1765509521
 C         -3.2151644442        4.2482940333        0.7320822754
 C         -3.7270476638        3.9035714419       -0.6648604348
 H         -4.6968086775        4.3915879987       -0.7927371754
 H         -3.8944795677        2.8268003436       -0.7288762397
 C         -2.8277178423        4.3451629351       -1.8167415177
 H         -2.7381799075        5.4338474220       -1.8027150849
 H         -3.3259756394        4.0631361934       -2.7475920977
 C         -1.4196739594        3.7490195733       -1.8280999718
 H         -0.7982746020        4.2087428442       -1.0641577183
 H         -0.9646412658        4.0004908654       -2.7908130223
 C         -1.3611342328        2.2286583987       -1.7098956737
 H         -0.3258282907        1.9031718189       -1.8785643116
 H         -1.9468089566        1.7811949567       -2.5209190794
 H         -3.0086040100        5.3178815576        0.7932781548
 H         -4.0131150840        4.0167247215        1.4414455590
 H         -1.8991474687        3.5060852867        2.2671754066
 H         -1.0530703898        3.9488576563        0.7910714237
 O         -2.3003321810        1.2597556578        1.8549647323
 C         -2.3643899532       -0.1172647019        1.7703806133
 O         -2.5897089522       -0.6953774911        2.8554376923
 H          0.2251182851       -1.2430959316        0.9144722390
 C          0.2636238113       -2.0544597668        0.2012913333
 C         -0.9085216993       -2.7028647457       -0.1658727442
 C         -0.8275177867       -3.7560217195       -1.0679539688
 C          0.3925589958       -4.1171514216       -1.6133607856
 C          1.5474118135       -3.4303952782       -1.2878354064
 C          1.4795130585       -2.3885258789       -0.3693781861
 N          2.6334538744       -1.6737674760        0.0044417442
 S          2.4734348274       -0.0158338457        0.2930695646
 O          1.9688388303        0.1791541887        1.6306350151
 O          1.7340320577        0.6183548753       -0.7742183577
 C          4.1878417981        0.4734130028        0.2297682818
 C          4.6810078602        1.0907329821       -0.9038666239
 C          6.0229759233        1.4355921196       -0.9496879436
 C          6.8447252017        1.1556277084        0.1315801454
 C          6.3350127060        0.5361042430        1.2633235309
 C          4.9941673443        0.1902575316        1.3161810235
 H          4.5501927661       -0.2836287100        2.1761107527
 H          6.9760627937        0.3223059582        2.1032305977
 H          7.8885393920        1.4241929171        0.0932642186
 H          6.4205779724        1.9201020524       -1.8268020745
 H          4.0018062597        1.2933891936       -1.7164543736
 H          3.4147348682       -1.8565611492       -0.6117246899
 H          2.4922629572       -3.6934570214       -1.7387218189
 H          0.4406359743       -4.9321645669       -2.3196066312
 H         -1.7221097481       -4.2839088273       -1.3557419227
 C         -2.2087448566       -2.2227487590        0.4352281944
 H         -2.2695638153       -2.5877871546        1.4718172078
 C         -3.4304315413       -2.6988334648       -0.3242486463
 C         -4.0784377150       -4.0052387161        0.0209082297
 C         -4.7536695672       -2.7163262224        0.3782084871
 H         -5.6341849739       -2.4220090274       -0.1728090707
 H         -4.7644777536       -2.4106815767        1.4146107907
 H         -3.6417349421       -4.5844071169        0.8204678441
 H         -4.5010925251       -4.5975928276       -0.7765795213
 H         -3.4171981718       -2.3875169435       -1.3625937190
 O         -1.7717143174       -0.4568031004       -1.7769126632
