  62
        -98.94459928
 C         -1.9649393093       -0.7743929298        0.5695303390
 C         -2.0073693592       -0.0933211599       -0.6705461510
 C         -2.1699397792        1.3625226401       -0.5914166512
 C         -2.1954130293        1.9681784602        0.6091553888
 C         -2.3159023593        3.4486053502        0.8517276886
 C         -3.7593886693        3.9708448103        0.8305504984
 C         -4.4102951791        4.0312151501       -0.5519094616
 H         -5.3284107491        4.6126440702       -0.4475722918
 H         -3.7562253590        4.5729781501       -1.2356439216
 C         -4.7591134791        2.6604391901       -1.1481248416
 H         -4.7532498892        1.9072537402       -0.3569755915
 H         -5.7712981690        2.6882301601       -1.5575963717
 C         -3.8284224890        2.2024415200       -2.2711681914
 H         -3.9211621188        2.8789734699       -3.1234990715
 H         -4.1441134089        1.2071852700       -2.5937526214
 C         -2.3491007790        2.1216538400       -1.8710652413
 H         -1.8062368489        1.5820004099       -2.6510270912
 H         -1.9249916190        3.1217030500       -1.7818162913
 H         -4.3644179393        3.3464473803        1.4918884084
 H         -3.7453722293        4.9806681803        1.2469873283
 H         -1.8944511594        3.6347015503        1.8421760987
 H         -1.7181788992        3.9871384302        0.1155401387
 O         -2.0951844994        1.2818680503        1.7801681388
 C         -1.9910834894       -0.0997328897        1.7883624890
 O         -1.9323043796       -0.6045604296        2.9299879990
 O         -1.9215559991       -0.6705775400       -1.7862959410
 C         -1.7943365894       -2.2827780498        0.5946244092
 C         -0.5137283493       -2.6459942699       -0.1180981607
 C         -0.4150254392       -3.6660537300       -1.0548025506
 C          0.7878528109       -3.9114356900       -1.6948935304
 C          1.9064926409       -3.1466274600       -1.4226824903
 C          1.8229337608       -2.1376331600       -0.4685448204
 C          0.6244863507       -1.9089600099        0.1848335594
 H          0.5681709106       -1.1198230898        0.9220082693
 N          2.9486000107       -1.3608654500       -0.1409797504
 S          2.7135300907        0.2423559301        0.3325739795
 O          2.3654870106        0.2665480702        1.7324494694
 O          1.8046393508        0.9135202500       -0.5696577007
 C          4.3716558608        0.8664522700        0.1241832996
 C          5.3219563306        0.5355687401        1.0721715797
 C          6.6222197207        0.9833913501        0.9021240698
 C          6.9493051208        1.7501952700       -0.2066857402
 C          5.9846253909        2.0766099499       -1.1477721803
 C          4.6822195909        1.6300649899       -0.9847265904
 H          3.8968138310        1.8620970499       -1.6861585905
 H          6.2405247110        2.6755304798       -2.0068427804
 H          7.9619706408        2.0976509399       -0.3366693701
 H          7.3740205806        0.7334508101        1.6331518899
 H          5.0173825105       -0.0541824598        1.9209562297
 H          3.6887854708       -1.4375573700       -0.8257311303
 H          2.8368399109       -3.3255517701       -1.9397628802
 H          0.8497306209       -4.7002069301       -2.4292435003
 H         -1.2824447392       -4.2585067300       -1.2953167306
 H         -1.6884519195       -2.5607487597        1.6540894792
 C         -3.0214288793       -2.9648683698        0.0268726791
 C         -3.4145089294       -4.3307594098        0.5011241092
 C         -4.2232508694       -3.1357377297        0.9048983390
 H         -5.2024939294       -3.0018826698        0.4704726989
 H         -4.1449887095       -2.7815314397        1.9228517490
 H         -3.8436531493       -5.0202471198       -0.2100559508
 H         -2.7930666795       -4.7968213997        1.2507562093
 H         -3.1926372692       -2.7105815999       -1.0127968909
