  62
        -98.93490932
 C         -0.5410748694       -1.7004293023        0.2338380801
 C         -1.3063166867       -1.2083883520       -0.8482044580
 C         -2.4872467085       -0.3806711650       -0.4998487386
 C         -2.7064800461       -0.0487458912        0.7840458304
 C         -3.8474137917        0.7377292127        1.3730287982
 C         -5.1398491029       -0.0876084150        1.4715706488
 C         -5.4812462155       -0.8883573178        0.2179358959
 H         -4.6653831793       -1.5804979206        0.0020377733
 H         -6.3665215770       -1.4905754552        0.4389497267
 C         -5.7825298082       -0.0545579907       -1.0255777553
 H         -6.6083096212        0.6266787155       -0.8090081817
 H         -6.1188071292       -0.7452166455       -1.8031815405
 C         -4.6139464742        0.7584856298       -1.5894913517
 H         -4.8931055955        1.0680584468       -2.6010556047
 H         -4.4609578149        1.6707108580       -1.0193039680
 C         -3.3048591610       -0.0150075718       -1.7160202083
 H         -3.4978136438       -0.9552723670       -2.2458476450
 H         -2.6252564827        0.5415476213       -2.3724529483
 H         -5.9633092589        0.5875783525        1.7104039150
 H         -5.0309029790       -0.7934075999        2.2986483516
 H         -3.5399431155        1.0238392248        2.3808322101
 H         -4.0170525868        1.6449213260        0.8029690991
 O         -1.8783602592       -0.4635148446        1.7856901596
 C         -0.8231349650       -1.3164748029        1.5490213074
 O         -0.2060339962       -1.6691051130        2.5740064713
 H          1.4277658833       -0.0961470186       -0.2921075290
 C          2.1550143832       -0.6457112596        0.2872539927
 C          1.9042515301       -1.9705978294        0.6105757705
 C          2.8403643208       -2.6649501102        1.3677259912
 C          4.0076048316       -2.0473493607        1.7783074762
 C          4.2640961631       -0.7320882842        1.4372917485
 C          3.3273591893       -0.0241112694        0.6917004492
 N          3.5449141622        1.3195261930        0.3754637651
 S          2.7398338607        2.1030604345       -0.8502721642
 O          2.6275321192        1.2860947889       -2.0351710755
 O          3.4695574769        3.3434648798       -1.0101281981
 C          1.1389527286        2.4717141331       -0.1678029619
 C          0.0153627100        2.3593161504       -0.9607732268
 C         -1.2128176354        2.7328433363       -0.4389383152
 C         -1.2964038209        3.2010997929        0.8624708146
 C         -0.1604318943        3.2949507415        1.6510305443
 C          1.0716688928        2.9346312672        1.1312633266
 H          1.9761801038        3.0043330309        1.7123188215
 H         -0.2311142512        3.6515062096        2.6660148763
 H         -2.2520733525        3.4959515391        1.2656731697
 H         -2.0953306357        2.6576405354       -1.0529955941
 H          0.1193836353        1.9731702415       -1.9633113972
 H          4.4572134721        1.6942871730        0.5831324792
 H          5.1753570271       -0.2486095236        1.7539835940
 H          4.7271821485       -2.5948568429        2.3677858302
 H          2.6407061582       -3.6891463282        1.6462936906
 C          0.6481099156       -2.6455471520        0.1204159949
 H          0.4423047609       -3.4795892427        0.8145208298
 C          0.8443257239       -3.2548209544       -1.2592535166
 C          1.7504820676       -2.6601194192       -2.2903841807
 C          2.1237476802       -3.9484366813       -1.6233827712
 H          2.0640119869       -4.8603339580       -2.1982107904
 H          2.9349641414       -3.9250128388       -0.9118725242
 H          1.4166389249       -2.6774738460       -3.3167477786
 H          2.2997700626       -1.7649952462       -2.0373908574
 H         -0.0687165702       -3.7035689145       -1.6339397850
 O         -1.0745904495       -1.4435724334       -2.0621446144
