  62
        -98.94159483
 C         -1.5151787396       -0.7634418613        0.9397627088
 C         -2.7529568494       -1.1257621513        0.3552179583
 C         -3.7680159097       -0.0617285116        0.2950976490
 C         -3.4726333102        1.1669578782        0.7550059001
 C         -4.3899632706        2.3528943679        0.6890029010
 C         -4.1809813007        3.1469997991       -0.6081855283
 C         -4.1796844202        2.2830029401       -1.8693915090
 H         -4.0548826003        2.9533317009       -2.7225813185
 H         -3.3090191600        1.6232153604       -1.8496147795
 C         -5.4480620199        1.4405278798       -2.0637180499
 H         -6.2546826601        1.8365355690       -1.4455595697
 H         -5.7675924498        1.5228007006       -3.1047829199
 C         -5.2695210694       -0.0498620403       -1.7689368012
 H         -4.4036254492       -0.4312689396       -2.3160767114
 H         -6.1509638592       -0.5784087503       -2.1419159418
 C         -5.1052046595       -0.4208429415       -0.2898638015
 H         -5.9130417498        0.0253726377        0.2936355288
 H         -5.1844399992       -1.5090170216       -0.2109223024
 H         -4.9680809410        3.8996798689       -0.6819691578
 H         -3.2204061109        3.6634616093       -0.5470189377
 H         -5.4212866705        2.0119174075        0.7560602205
 H         -4.1754295810        3.0014741373        1.5399126816
 O         -2.2676497604        1.4825951081        1.2944877706
 C         -1.2635500501        0.5352185784        1.3938188199
 O         -0.2083458603        0.9608250583        1.9032493905
 O         -3.0214553289       -2.2705237210       -0.0945144527
 C         -0.3534668593       -1.7373771510        1.0676103682
 C          0.3461190910       -1.8385048696       -0.2665445418
 C         -0.1037204086       -2.6729834789       -1.2835900426
 C          0.5583597816       -2.7080109977       -2.4975605425
 C          1.6826672114       -1.9311134971       -2.7145822917
 C          2.1338750109       -1.0856190578       -1.7071512409
 C          1.4568374107       -1.0382582091       -0.4977972210
 H          1.7955231804       -0.3686937896        0.2780419396
 N          3.2545857307       -0.2675959972       -1.9031109600
 S          4.3097964104        0.0503096521       -0.6443324796
 O          5.5386944803        0.4407711530       -1.3030562191
 O          4.4072739806       -1.0701683587        0.2620696695
 C          3.6215194097        1.4697523911        0.1775593815
 C          3.3827058496        1.4306971899        1.5360804214
 C          2.8596536591        2.5525649592        2.1579587223
 C          2.5891842288        3.6891289097        1.4131943632
 C          2.8402539090        3.7149884110        0.0496143032
 C          3.3623498595        2.5960443617       -0.5776892676
 H          3.5736178596        2.5781033626       -1.6340728176
 H          2.6269421188        4.6022387514       -0.5249348960
 H          2.1766022984        4.5588742892        1.8998734639
 H          2.6553536789        2.5305203982        3.2160970122
 H          3.5993679598        0.5237429895        2.0788848707
 H          3.7373231609       -0.4032839863       -2.7791346701
 H          2.2053723115       -1.9720312361       -3.6582967216
 H          0.2002593720       -3.3565353371       -3.2829946931
 H         -0.9867929484       -3.2710932194       -1.1258970832
 H          0.3495898905       -1.2696617514        1.7703611387
 C         -0.7526683889       -3.0885160216        1.6234702670
 C          0.3251056214       -4.0081073917        2.1109748563
 C         -0.5984792490       -3.3492647328        3.0901635368
 H         -1.3417288089       -3.9553166535        3.5862319161
 H         -0.2062464794       -2.5508752132        3.7035443675
 H          0.2183569318       -5.0675895015        1.9354302254
 H          1.3445219412       -3.6546434113        2.0548183268
 H         -1.6088600487       -3.5289821215        1.1309598265
