  62
        -98.93787106
 C         -0.8532460748       -1.4114103518        0.7728076869
 C         -1.9561538731       -1.5989142779       -0.0942651852
 C         -3.0438585317       -0.6109685170        0.0210751462
 C         -2.9121402633        0.4187142896        0.8760453079
 C         -3.8999877936        1.5377701707        1.0538271079
 C         -3.8117574094        2.5298876428       -0.1229052508
 C         -5.0658833102        2.5920871408       -0.9945281125
 H         -5.8446407825        3.1407806252       -0.4606406082
 H         -4.8141676620        3.1653982386       -1.8893210177
 C         -5.6484807743        1.2404861155       -1.4163270944
 H         -6.3471090538        1.4340117751       -2.2331433678
 H         -6.2364269109        0.8223968175       -0.5978134704
 C         -4.6302298898        0.1891697694       -1.8756039613
 H         -5.0597073545       -0.3519380645       -2.7212548575
 H         -3.7176975535        0.6648004628       -2.2345886271
 C         -4.2729889657       -0.8621692731       -0.8092111711
 H         -5.1302897435       -1.0138733490       -0.1469936396
 H         -4.0765218274       -1.8132615165       -1.3129966152
 H         -2.9541944831        2.2520952255       -0.7375417247
 H         -3.6215859913        3.5335848222        0.2599426153
 H         -4.9045985178        1.1264967249        1.1303788806
 H         -3.6570937963        2.0358850600        1.9925084371
 O         -1.8114350397        0.5941885668        1.6539109144
 C         -0.7709881377       -0.3169411219        1.6372953597
 O          0.1549005839       -0.0527553726        2.4299178241
 H          2.2486637856       -0.5237569654        0.5910232172
 C          2.1020355995       -1.0254369606       -0.3544534890
 C          1.1689492245       -2.0515105679       -0.4439859960
 C          0.9958262363       -2.6975246042       -1.6620070613
 C          1.7380552590       -2.3123133274       -2.7645549559
 C          2.6570572027       -1.2824441053       -2.6774512525
 C          2.8413339191       -0.6339117980       -1.4600279478
 N          3.7738882149        0.4011539895       -1.3456860512
 S          3.8395352205        1.4506393119       -0.0621367350
 O          4.6942964025        2.5200782043       -0.5366284322
 O          4.3020115506        0.7660527945        1.1198105920
 C          2.1991613746        2.1001334855        0.1998853984
 C          1.8337672101        2.4333756393        1.4876250300
 C          0.5932863164        3.0076639145        1.7085413795
 C         -0.2586806798        3.2353993147        0.6409775083
 C          0.1197138831        2.8901177246       -0.6469025033
 C          1.3618665082        2.3210816447       -0.8750623989
 H          1.6754321338        2.0449442318       -1.8689376367
 H         -0.5489140461        3.0636854688       -1.4755385490
 H         -1.2263098775        3.6773148200        0.8161656062
 H          0.2923872181        3.2597902808        2.7124600185
 H          2.5165354220        2.2207980268        2.2945522810
 H          4.1566342490        0.7701395101       -2.2015901419
 H          3.2318540387       -0.9816044048       -3.5397285301
 H          1.5940668197       -2.8173405381       -3.7076554404
 H          0.2616879428       -3.4810115618       -1.7492323164
 C          0.3370317640       -2.3604495898        0.7764715065
 H          0.9315303772       -2.0904397689        1.6600663332
 C         -0.0648310418       -3.8152365945        0.8919614514
 C          0.9781289583       -4.8278746616        1.2541758970
 C         -0.0865659527       -4.4614611001        2.2430110168
 H         -0.8623318392       -5.1812778796        2.4572565422
 H          0.1929702093       -3.8558834566        3.0932577567
 H          0.9363178718       -5.8013702197        0.7903409304
 H          1.9806489718       -4.4680748039        1.4326515167
 H         -0.8361917698       -4.1101410106        0.1931436101
 O         -2.0536252835       -2.5454494878       -0.9178176603
