  62
        -98.94184324
 C          2.7776548481        0.3827728561       -0.2674179356
 C          2.0626597783       -0.4723778563       -1.1411965547
 C          2.1446974310       -1.9105687305       -0.8467460207
 C          2.8971456150       -2.3387903740        0.1815054855
 C          3.0331849339       -3.7690330803        0.6145079103
 C          1.9994269581       -4.1310227633        1.6895783545
 C          0.5670313359       -3.7237760017        1.3419694760
 H         -0.0757022733       -4.0764667324        2.1520896956
 H          0.4869061400       -2.6334015537        1.3317390642
 C          0.0514200614       -4.2754643876        0.0057830166
 H         -0.9658187974       -4.6438631145        0.1535980519
 H          0.6632947543       -5.1221195975       -0.3092438018
 C         -0.0087406501       -3.2394778479       -1.1184843061
 H         -0.5087129115       -2.3400299737       -0.7474164708
 H         -0.6165882779       -3.6509713492       -1.9292610176
 C          1.3444510174       -2.8355544427       -1.7194523071
 H          1.9197594006       -3.7299247976       -1.9675291021
 H          1.1502499006       -2.2837284450       -2.6437168319
 H          2.2780961622       -3.6324123613        2.6209099571
 H          2.0405030487       -5.2092705557        1.8558877407
 H          4.0342743857       -3.9077184581        1.0267347089
 H          2.9142609783       -4.4173591536       -0.2514156670
 O          3.6041374063       -1.4946169339        0.9753998002
 C          3.5340047082       -0.1255372774        0.7939990556
 O          4.1964988368        0.5317899542        1.6223816384
 O          1.3814616038       -0.0827675233       -2.1286875100
 C          2.7296449652        1.9034328166       -0.3541125903
 C          1.4510911970        2.3769475430        0.2953545938
 C          1.4644859269        3.1073468924        1.4775903982
 C          0.2810296412        3.4442201602        2.1129964201
 C         -0.9381238989        3.0433593110        1.5948091095
 C         -0.9578193422        2.3169822167        0.4128259875
 C          0.2243585429        2.0103451410       -0.2394095041
 H          0.1951612211        1.4291254603       -1.1490703288
 N         -2.1953266745        1.8300175764       -0.0916609813
 S         -2.6739969412        0.4619036061        0.7921815284
 O         -2.9822948445        0.8897783065        2.1335937613
 O         -1.6843652859       -0.5867251327        0.6714998632
 C         -4.1718082345        0.0062085576       -0.0592155960
 C         -4.1533285085       -1.0408138128       -0.9597805766
 C         -5.3185136621       -1.3589597611       -1.6402511463
 C         -6.4728710208       -0.6254179667       -1.4123724104
 C         -6.4743644221        0.4247238864       -0.5060363224
 C         -5.3137080239        0.7469031125        0.1785384981
 H         -5.2674649432        1.5484665232        0.8966822854
 H         -7.3743467897        0.9919002958       -0.3315940876
 H         -7.3775042096       -0.8752910303       -1.9438605841
 H         -5.3197437315       -2.1756788693       -2.3440965499
 H         -3.2336552234       -1.5863267926       -1.1023664034
 H         -2.0787286807        1.5285288753       -1.0530071695
 H         -1.8639789316        3.2570615876        2.1031007013
 H          0.3096798309        4.0085257840        3.0329622709
 H          2.4130994301        3.3849882590        1.9144510633
 H          3.5707297576        2.2646642236        0.2524117218
 C          2.8853627485        2.4423220557       -1.7616026548
 C          3.3289398157        3.8611582257       -1.9470539230
 C          4.2578220854        2.7347674122       -2.2849177605
 H          4.4664048451        2.5285735922       -3.3238632976
 H          5.0936370400        2.5468302362       -1.6265365158
 H          2.8988161611        4.4329592637       -2.7548044778
 H          3.5368378479        4.4397513919       -1.0597277992
 H          2.1637010775        2.0428684827       -2.4610273261
