  62
        -98.94536791
 C          2.6455467002        1.0755282904        0.2896359104
 C          2.5728115304        0.3136947808       -0.9021127698
 C          3.2035971203       -1.0134505693       -0.8523321101
 C          3.7987525701       -1.4201126596        0.2837096299
 C          4.4234264800       -2.7689516897        0.4907300297
 C          3.4079463398       -3.7688717699        1.0617548691
 C          2.0773979700       -3.7995113996        0.3085814888
 H          1.4512065498       -4.5602472397        0.7805822484
 H          1.5638575000       -2.8431912896        0.4394364490
 C          2.2034904803       -4.1001785791       -1.1914326413
 H          3.1753277803       -4.5501687791       -1.3986234412
 H          1.4399279703       -4.8311570590       -1.4655000617
 C          2.0019322105       -2.8860095688       -2.1002948309
 H          1.8926153808       -3.2455639585       -3.1270872411
 H          1.0695877705       -2.3792118289       -1.8333578210
 C          3.1379612906       -1.8546929589       -2.0954348704
 H          2.9551054908       -1.1580195286       -2.9186794302
 H          4.0908668106       -2.3573718088       -2.2732313403
 H          3.8564513598       -4.7637131899        1.0470558589
 H          3.2054825796       -3.5026016102        2.1018293191
 H          4.8128296602       -3.1324634594       -0.4579804004
 H          5.2487971298       -2.6613409700        1.1964157299
 O          3.8525335598       -0.6575704500        1.4062097202
 C          3.2605406999        0.5952408500        1.4445420704
 O          3.3438422996        1.1703295197        2.5495682406
 O          2.0113365107        0.7181097411       -1.9528108198
 C          1.9785397902        2.4387654804        0.3560273407
 C          0.5017872103        2.2753755606        0.0860703903
 C         -0.2042160095        3.0277003609       -0.8421952096
 C         -1.5507648395        2.7875338210       -1.0584309600
 C         -2.2209957197        1.8038696508       -0.3550508504
 C         -1.5261710899        1.0524881105        0.5841541995
 C         -0.1805432399        1.2980657104        0.8010705099
 H          0.3617448199        0.7066807901        1.5304812198
 N         -2.2009102701        0.0505830003        1.3112851790
 S         -2.9161253900       -1.1769554694        0.4077336685
 O         -2.9797504702       -2.3145182397        1.3002406181
 O         -2.2304916297       -1.3809227990       -0.8471652214
 C         -4.5649056599       -0.5713510392        0.1199251883
 C         -5.3499493301       -0.2807217796        1.2185819282
 C         -6.6354625400        0.1946182606        1.0148455581
 C         -7.1116906697        0.3681742510       -0.2763576320
 C         -6.3120225295        0.0682617613       -1.3686351119
 C         -5.0244869796       -0.4068884288       -1.1718495318
 H         -4.3632203294       -0.6470022386       -1.9892343317
 H         -6.6840007193        0.2034066616       -2.3715006420
 H         -8.1122722897        0.7393257411       -0.4323578521
 H         -7.2603680702        0.4286816803        1.8615360280
 H         -4.9416045703       -0.4337740599        2.2035579082
 H         -1.6331600503       -0.3563910100        2.0415719490
 H         -3.2671462396        1.6098481409       -0.5271020307
 H         -2.0852211993        3.3738790312       -1.7901374099
 H          0.3022843907        3.7923065510       -1.4076224392
 H          2.1002698200        2.7874820301        1.3920713509
 C          2.6660309205        3.4166178607       -0.5724476388
 C          2.6296455104        4.8850986506       -0.2767417284
 C          3.9028407904        4.1157615805       -0.0972950783
 H          4.7070905205        4.2742509307       -0.7998184481
 H          4.2376978601        3.9021998302        0.9075966317
 H          2.5630655207        5.5763367508       -1.1031649382
 H          2.1015110203        5.2031165803        0.6093647216
 H          2.6372429107        3.0983488010       -1.6079395689
