  62
        -98.93802649
 C          2.3911251617       -1.2065367645        0.1034421029
 C          3.1707073275       -0.4923498116       -0.8325247034
 C          4.0104245069        0.6023110152       -0.3075259774
 C          3.9795045232        0.8630047168        1.0130353663
 C          4.7084276722        1.9455265752        1.7636187475
 C          4.0693694640        3.3311887084        1.5733745043
 C          3.6521969816        3.6573553759        0.1414554553
 H          2.9555854479        2.8944775976       -0.2121708863
 H          3.1090950455        4.6060664997        0.1610213291
 C          4.7999438062        3.7978318101       -0.8557341783
 H          5.4655221495        4.5979134163       -0.5241293226
 H          4.3646358000        4.1030984186       -1.8109846156
 C          5.6366329734        2.5395661269       -1.0950215733
 H          6.3248802471        2.3654255975       -0.2724829032
 H          6.2517656382        2.7221654511       -1.9810646266
 C          4.8273860704        1.2784764923       -1.3824340435
 H          4.1326734135        1.4790371527       -2.2064827008
 H          5.5086921817        0.5078182394       -1.7634980430
 H          4.7701863876        4.0871153909        1.9311560920
 H          3.1739936845        3.3776928534        2.1979827131
 H          5.7555569436        1.9574305499        1.4764163266
 H          4.6563480046        1.6820038015        2.8221802612
 O          3.1965026382        0.1566631564        1.8778164146
 C          2.3875811589       -0.8840131879        1.4600835569
 O          1.7314482778       -1.4264661141        2.3682592939
 O          3.1625103996       -0.7469079274       -2.0691619163
 C          1.5105400606       -2.3431043032       -0.3800257362
 C          0.0607110247       -2.0551286791       -0.0739888610
 C         -0.8110673649       -3.0012737881        0.4481984663
 C         -2.1339700938       -2.6755207862        0.6941982677
 C         -2.6166931614       -1.4085800224        0.4250907864
 C         -1.7579757140       -0.4579717987       -0.1118523728
 C         -0.4356529933       -0.7894187890       -0.3623549620
 H          0.2315087996       -0.0471972554       -0.7848531066
 N         -2.2366618827        0.8367816198       -0.3814076254
 S         -3.6308843292        0.9859040118       -1.3066482894
 O         -3.7767821581       -0.1207314364       -2.2239030545
 O         -3.5522021050        2.3041857496       -1.8974720401
 C         -4.9468750983        0.9648189956       -0.1080928037
 C         -5.9711689229        0.0457689751       -0.2250239460
 C         -6.9899402427        0.0553146212        0.7151172751
 C         -6.9665963588        0.9789092871        1.7488896696
 C         -5.9318088825        1.8970150676        1.8504328217
 C         -4.9110353417        1.8936948444        0.9133726301
 H         -4.0909452559        2.5910947464        0.9546162493
 H         -5.9167021685        2.6136170225        2.6558402691
 H         -7.7594963820        0.9837577786        2.4800519789
 H         -7.7954474778       -0.6571220771        0.6378395841
 H         -5.9439289731       -0.6571931618       -1.0423110740
 H         -1.5241719634        1.4706160917       -0.7134337606
 H         -3.6436999071       -1.1495372427        0.6237939741
 H         -2.7978930849       -3.4195126164        1.1071191726
 H         -0.4542369718       -3.9940160199        0.6673698027
 H          1.6282716961       -2.3591289258       -1.4745103180
 C          1.9987966714       -3.6625023161        0.1804532665
 C          1.8041834059       -4.9320502556       -0.5918508882
 C          3.1715733827       -4.3320339447       -0.4688156319
 H          3.8986090046       -4.8233341028        0.1601948922
 H          3.6000050569       -3.8491551524       -1.3352079064
 H          1.5944559633       -5.8402443233       -0.0472514950
 H          1.3062614733       -4.8647696512       -1.5474417650
 H          1.9352724534       -3.7025746802        1.2620306826
