  62
        -98.93853727
 C         -2.3428882662        1.2311436227       -0.2510597746
 C         -2.3814990693       -0.0033341020        0.4374820788
 C         -3.3821603110       -0.9839782746       -0.0253140337
 C         -4.1880571337       -0.6768490739       -1.0583445262
 C         -5.2597612580       -1.4830381873       -1.7620465407
 C         -5.8375036023       -2.7436048060       -1.1234282893
 C         -6.6469862364       -2.5043885682        0.1503644140
 H         -7.5649123789       -1.9739316108       -0.1148805704
 H         -6.9308914958       -3.4760767759        0.5604329988
 C         -5.9437785850       -1.6938575641        1.2362719751
 H         -5.7559158707       -0.6808031896        0.8748785191
 H         -6.6266273413       -1.6108048766        2.0861237467
 C         -4.6333807182       -2.2874097361        1.7503623739
 H         -4.3309892018       -1.7073049923        2.6263709500
 H         -4.7966342331       -3.3176387510        2.0726087928
 C         -3.4595602593       -2.2645934250        0.7549759110
 H         -2.5288698943       -2.3337175533        1.3262189079
 H         -3.4905792315       -3.1200512449        0.0841511803
 H         -5.0502875862       -3.4696530279       -0.9424330049
 H         -6.5105691765       -3.1851376774       -1.8634792176
 H         -6.0737248953       -0.7795691410       -1.9637817612
 H         -4.8368485744       -1.7525552873       -2.7362548303
 O         -4.0964459179        0.5208538211       -1.7073175998
 C         -3.1869569458        1.4905136157       -1.3321296125
 O         -3.2290279705        2.5271496773       -2.0238306038
 H          0.5343455447        1.0555226490        1.6576125073
 C          0.8604141322        1.2055314025        0.6408213289
 C          0.0300844752        1.8518475192       -0.2607982070
 C          0.4605658981        1.9995197910       -1.5765324142
 C          1.6930563676        1.5163568680       -1.9734841253
 C          2.5177105864        0.8662633566       -1.0711413634
 C          2.0890086749        0.6978714797        0.2378911025
 N          2.9116678723        0.0276002733        1.1595135606
 S          3.6096905366       -1.4250465716        0.6902301334
 O          2.8169465102       -2.1094471075       -0.3050021217
 O          3.8566080008       -2.1420731817        1.9225518057
 C          5.1729908909       -0.9300170945       -0.0071422439
 C          5.5417855161       -1.3790179757       -1.2600040594
 C          6.7685342066       -0.9920303010       -1.7770889195
 C          7.6009489918       -0.1679706073       -1.0355092666
 C          7.2171151790        0.2723981664        0.2224920574
 C          5.9929070562       -0.1119690716        0.7455028530
 H          5.6590608623        0.2058027164        1.7189824669
 H          7.8669631062        0.9134298747        0.7961320391
 H          8.5542528487        0.1327688977       -1.4405639305
 H          7.0682731369       -1.3340596511       -2.7547007365
 H          4.8591560598       -2.0133693434       -1.8030967212
 H          2.4936480788       -0.0613303167        2.0749439922
 H          3.4743916077        0.4753880974       -1.3770162038
 H          2.0152823901        1.6424935569       -2.9960176235
 H         -0.1939018313        2.4856241733       -2.2869615833
 C         -1.3519550235        2.3243834598        0.1191748236
 H         -1.6036565742        3.1825070251       -0.5179092461
 C         -1.4817676730        2.7417158475        1.5691355655
 C         -0.8466426036        4.0212236618        2.0211773579
 C         -2.3380516210        3.9207588823        1.9159805221
 H         -2.9193583937        3.8844205021        2.8252122152
 H         -2.8303715440        4.4367180400        1.1045322297
 H         -0.4019931158        4.0581986955        3.0038778835
 H         -0.3247849498        4.6058726093        1.2788457375
 H         -1.4915600876        1.9076676364        2.2593328612
 O         -1.6238590304       -0.2921812814        1.4018068406
