  62
        -98.93756504
 C         -1.8678143325       -0.2585464130       -0.0632928022
 C         -2.9210551884       -1.0997366248        0.3684850891
 C         -4.2295499282       -0.4566824167        0.5573725627
 C         -4.3451355901        0.8662505937        0.3407711176
 C         -5.6238582741        1.6517519535        0.4117650597
 C         -6.4594438405        1.4106154198       -0.8618142706
 C         -7.7836369009        0.6857085953       -0.6197045011
 H         -8.1727027488        0.3822417753       -1.5939941981
 H         -8.4978636140        1.3877163935       -0.1842177555
 C         -7.7161643350       -0.5412948421        0.2946809615
 H         -8.6510647834       -1.0893496840        0.1596588291
 H         -7.6916007230       -0.2209699688        1.3372984493
 C         -6.5436910814       -1.4992929690        0.0473976349
 H         -6.1826597346       -1.4087288199       -0.9773083501
 H         -6.9097315509       -2.5211169501        0.1662356527
 C         -5.3620677225       -1.3309226347        1.0209095387
 H         -4.9067773173       -2.3112126086        1.1897689706
 H         -5.7317944044       -0.9700803424        1.9846304780
 H         -5.8522696783        0.8374130846       -1.5657390204
 H         -6.6756179239        2.3664786693       -1.3414948599
 H         -5.3537444086        2.7046133357        0.4953067602
 H         -6.1846313926        1.3638959881        1.2981893374
 O         -3.3041586462        1.6454390404       -0.0524206953
 C         -2.0423843550        1.1094207436       -0.2695406080
 O         -1.1899903207        1.9406979037       -0.6341456078
 O         -2.7718954331       -2.3318708321        0.5888726291
 C         -0.4962810517       -0.8697922842       -0.2959319034
 C          0.5021411780       -0.2227110574        0.6304536810
 C          0.3195408539       -0.3692872474        2.0043432015
 C          1.1790757909        0.2347356595        2.8998654683
 C          2.2461212249        0.9906437495        2.4448797675
 C          2.4385785874        1.1431177745        1.0775805450
 C          1.5724585498        0.5317416502        0.1790796902
 H          1.7336877970        0.6865015299       -0.8737870222
 N          3.4986513963        1.9265502853        0.5948804275
 S          4.4527175703        1.4145457552       -0.6762636701
 O          5.5871532776        2.3114021025       -0.6579742161
 O          3.6923461306        1.3707989798       -1.8982590619
 C          4.9749971108       -0.2251462955       -0.2076360099
 C          4.2296209749       -1.3178477776       -0.6016948575
 C          4.6143968751       -2.5785766077       -0.1727133855
 C          5.7295900536       -2.7243618502        0.6376535060
 C          6.4699005878       -1.6164631189        1.0219943929
 C          6.0880252939       -0.3533088064        0.6007907022
 H          6.6400783677        0.5333425685        0.8675012576
 H          7.3397193757       -1.7333634631        1.6481312254
 H          6.0245004977       -3.7077297648        0.9683439046
 H          4.0406815763       -3.4408353289       -0.4730494852
 H          3.3716432470       -1.1678306737       -1.2356091936
 H          4.0644046168        2.3512820105        1.3149442165
 H          2.9152159368        1.4711138450        3.1425058165
 H          1.0211052763        0.1164033273        3.9612083941
 H         -0.5177576565       -0.9558039159        2.3572043765
 H         -0.5993565326       -1.9258968670       -0.0073326217
 C         -0.1207070923       -0.8018612919       -1.7602337662
 C          0.8343326506       -1.8039763643       -2.3340311559
 C         -0.6207550328       -1.8670031883       -2.6877166073
 H         -0.9247509196       -1.5814365365       -3.6836461894
 H         -1.2176880313       -2.6584947702       -2.2585395623
 H          1.5334798327       -1.4750689637       -3.0889010417
 H          1.2199002952       -2.5611373130       -1.6677688267
 H         -0.0881076825        0.2119376201       -2.1438425503
