  62
        -98.93587881
 C         -2.3606101783       -1.1872518751        0.0181857269
 C         -3.3485690728       -0.6773852922        0.9026023161
 C         -4.3547772103        0.2194647173        0.3217722634
 C         -4.3116347510        0.4981578790       -0.9929850990
 C         -5.2850616149        1.3435333803       -1.7710287490
 C         -5.3397281230        2.8380123891       -1.4000432096
 C         -6.4182899784        3.1946611402       -0.3695893784
 H         -6.8813272547        4.1401338773       -0.6592833330
 H         -7.2029745028        2.4380182594       -0.4063580193
 C         -5.9334806258        3.3587739845        1.0740299268
 H         -5.4468012087        4.3311599433        1.1783435077
 H         -6.8117185397        3.3598303361        1.7232034737
 C         -4.9505148494        2.2994420483        1.5730379760
 H         -4.8433835717        2.4158996194        2.6532664090
 H         -3.9624688719        2.4831611841        1.1442103509
 C         -5.3522370822        0.8468889637        1.2514697561
 H         -5.3465848727        0.2480513299        2.1643068401
 H         -6.3522346754        0.8096754240        0.8218250517
 H         -4.3587749497        3.1630509055       -1.0543583563
 H         -5.5549260455        3.3832976400       -2.3203885229
 H         -4.9826356350        1.2463092349       -2.8158077503
 H         -6.2824652970        0.9092125785       -1.6712747808
 O         -3.3557754194       -0.0179425590       -1.8105074835
 C         -2.3569597501       -0.8548948612       -1.3362013402
 O         -1.5584431814       -1.2161175273       -2.2258419576
 H          0.3580736170       -0.9909748638       -1.1703034311
 C          0.7380201811       -0.9174032203       -0.1619086017
 C         -0.0123555546       -1.4323114217        0.8857147289
 C          0.4888038158       -1.3220096910        2.1775827014
 C          1.7088792572       -0.7116452252        2.4105511978
 C          2.4507758739       -0.1950307052        1.3635418514
 C          1.9574611706       -0.2968866132        0.0692585705
 N          2.6891567694        0.2475833090       -1.0015115723
 S          4.3009582932       -0.1948322819       -1.1601886597
 O          4.6158407216        0.0016078453       -2.5583679817
 O          4.5438977707       -1.5155118845       -0.6269189668
 C          5.1734673214        1.0211764995       -0.1951318445
 C          4.9546053317        2.3554743369       -0.4770749927
 C          5.6347897755        3.3143526747        0.2564750443
 C          6.5196772938        2.9251422645        1.2512620790
 C          6.7307456797        1.5814755405        1.5199241034
 C          6.0525237974        0.6171047287        0.7905563357
 H          6.1795401040       -0.4389294393        0.9678684467
 H          7.4189928091        1.2810216023        2.2935338885
 H          7.0476755375        3.6739238148        1.8203644232
 H          5.4728047624        4.3602436022        0.0507747803
 H          4.2605895802        2.6151570825       -1.2591612322
 H          2.2111182223        0.1686910650       -1.8881134304
 H          3.4008522958        0.2828413413        1.5386986592
 H          2.0856782197       -0.6344510883        3.4189589243
 H         -0.0902478463       -1.7111484958        3.0023384292
 C         -1.3293918541       -2.1244992938        0.6242443687
 H         -1.7500194387       -2.4153337357        1.5962715949
 C         -1.1124807399       -3.3817262742       -0.1965336538
 C         -0.5568290146       -4.6010116998        0.4733246541
 C         -1.9905265367       -4.5725425866        0.0371097670
 H         -2.2862127323       -5.1684612873       -0.8132942750
 H         -2.7531803320       -4.4886980870        0.7976121997
 H         -0.3475402958       -4.5391127395        1.5304723508
 H          0.1379793018       -5.2175989436       -0.0761281675
 H         -0.8058770086       -3.1839821590       -1.2157080023
 O         -3.3948452726       -0.9744052831        2.1257647430
