  62
        -98.93357239
 C          2.0523066888        0.9878530237       -0.3612936933
 C          2.3849512591       -0.2301794746        0.2816301319
 C          3.7579231003       -0.3155667475        0.8029362462
 C          4.5965596550        0.7273372329        0.6742546968
 C          6.0164617985        0.7920445813        1.1678423070
 C          7.0388515796        0.1674797453        0.2085110248
 C          7.0142702910       -1.3598281905        0.1358196075
 H          7.9149098727       -1.6695571402       -0.3980720208
 H          7.0756156963       -1.7717128417        1.1436134662
 C          5.7898415858       -1.9404445687       -0.5855637175
 H          5.3096154599       -1.1578026212       -1.1774746834
 H          6.1122075286       -2.7162453462       -1.2838405090
 C          4.7475283822       -2.5691262703        0.3393990471
 H          3.9095047708       -2.9131346756       -0.2723699388
 H          5.1783521352       -3.4395172613        0.8394523597
 C          4.1937514703       -1.6163403390        1.4068964591
 H          4.9396839290       -1.4460526857        2.1829100854
 H          3.3152735927       -2.0825386662        1.8599281198
 H          6.8800308551        0.5821032457       -0.7896391215
 H          8.0314406366        0.4777206564        0.5430977213
 H          6.0882384211        0.3092748620        2.1427808093
 H          6.2566223360        1.8509424561        1.2848646506
 O          4.2272930450        1.8906947615        0.0746725854
 C          2.9635384870        2.0409625176       -0.4683405788
 O          2.7675566620        3.1496145376       -1.0076809382
 O          1.5973932888       -1.1983431825        0.4266232382
 C          0.6795514528        1.2228425798       -0.9851393712
 C         -0.3855835367        0.9269459594        0.0393679094
 C         -0.5744293504        1.8987094576        1.0245149942
 C         -1.4841814003        1.7229845367        2.0475442007
 C         -2.2590390953        0.5771917131        2.0997289022
 C         -2.0824385329       -0.3968403461        1.1278857710
 C         -1.1431028823       -0.2306472015        0.1175756124
 H         -1.0221159423       -1.0375080197       -0.5804945488
 N         -2.8715593794       -1.5691169921        1.1229254138
 S         -3.9488473908       -1.7134737529       -0.1499934456
 O         -4.7709302054       -2.8606611437        0.1624765274
 O         -3.2295838810       -1.7516896719       -1.3952395006
 C         -4.9266235398       -0.2228785801       -0.0570035696
 C         -6.1235216752       -0.2468433102        0.6317976475
 C         -6.8419397556        0.9298407457        0.7704893116
 C         -6.3466038803        2.1075672650        0.2315439649
 C         -5.1413116458        2.1163474361       -0.4537626526
 C         -4.4213102172        0.9413748435       -0.6016033732
 H         -3.4823248539        0.9120755778       -1.1308353545
 H         -4.7549021855        3.0319717319       -0.8718055487
 H         -6.9027840656        3.0247085932        0.3445853537
 H         -7.7810234635        0.9256744394        1.3000696008
 H         -6.4705993372       -1.1858372382        1.0321343189
 H         -3.3618331681       -1.7292517185        1.9921539417
 H         -2.9825122772        0.4344473550        2.8885222864
 H         -1.6006939082        2.4865364881        2.8013549387
 H          0.0246410379        2.7985698057        0.9827846725
 H          0.6410882481        2.3096001284       -1.1621188444
 C          0.6398552997        0.5961589027       -2.3730708576
 C          0.6301231417       -0.8723898204       -2.6677906219
 C         -0.5491195358       -0.0242429168       -3.0426441190
 H         -0.7003628312        0.1923292170       -4.0904117679
 H         -1.4678170210       -0.1576007944       -2.4944167602
 H          1.2775798649       -1.2330764349       -3.4551537132
 H          0.5452164648       -1.5586806992       -1.8404199153
 H          1.2819451893        1.1798903965       -3.0307012783
