  62
        -98.94029841
 C          2.6353096610        1.3212641301       -0.0957023056
 C          2.4665232547        0.1635473888       -0.8923691520
 C          3.6742025140       -0.6483141947       -1.1022402686
 C          4.8400910757       -0.2503264685       -0.5609686078
 C          6.1317161504       -1.0092538339       -0.6505409574
 C          6.2959912028       -1.9656459861        0.5388950649
 C          5.0695660772       -2.8394673749        0.8028210192
 H          5.3116301950       -3.4952384854        1.6420464681
 H          4.2390530531       -2.2049784994        1.1215951339
 C          4.6245278577       -3.6879323070       -0.3965365105
 H          5.4375541022       -3.7627048921       -1.1195962636
 H          4.4062919314       -4.6994751956       -0.0476952063
 C          3.3652033188       -3.1799409964       -1.1015208445
 H          2.5730896007       -3.0141430175       -0.3660777499
 H          3.0180004714       -3.9620612846       -1.7821736707
 C          3.5328839417       -1.8972004747       -1.9259319486
 H          2.6229214688       -1.7634867052       -2.5182754382
 H          4.3764694496       -2.0070852215       -2.6104431210
 H          6.4926819990       -1.3730140209        1.4352999600
 H          7.1640747608       -2.6009147301        0.3541863238
 H          6.1559329608       -1.5665855706       -1.5847704074
 H          6.9533915536       -0.2911895159       -0.6438866484
 O          4.9657809082        0.8793831722        0.1812916680
 C          3.8685661052        1.6815286304        0.4472862650
 O          4.1150720641        2.6708980341        1.1663031393
 O          1.3675911311       -0.1749697156       -1.4059371045
 C          1.4438141267        2.2123792917        0.2087438363
 C          0.3837928505        1.4024106020        0.9157356319
 C          0.7355805596        0.7222048775        2.0793333793
 C         -0.1896206467       -0.0503504303        2.7530847198
 C         -1.4888136345       -0.1589438974        2.2869347480
 C         -1.8509512519        0.5156576839        1.1301622692
 C         -0.9168081831        1.2939156611        0.4539838189
 H         -1.2114773603        1.8064654147       -0.4481983697
 N         -3.1742336786        0.4455821209        0.6574645599
 S         -3.9993392471       -1.0236413050        0.7568608537
 O         -4.4213540610       -1.2187519043        2.1218349075
 O         -3.2118027168       -2.0908250583        0.1812035265
 C         -5.4152991817       -0.6658718520       -0.2638146814
 C         -6.4718531195        0.0320649548        0.2899987517
 C         -7.5635246922        0.3370890265       -0.5070619079
 C         -7.5803691770       -0.0580303541       -1.8365701174
 C         -6.5131059779       -0.7589534598       -2.3777198530
 C         -5.4172035427       -1.0660701307       -1.5864330124
 H         -4.5687335632       -1.6154094496       -1.9626010148
 H         -6.5300074657       -1.0670596247       -3.4108085414
 H         -8.4316646255        0.1793587259       -2.4548252883
 H         -8.3964060128        0.8798388035       -0.0900578198
 H         -6.4181182147        0.3100488689        1.3294871891
 H         -3.2628237941        0.8386774461       -0.2699833046
 H         -2.2170178687       -0.7665855802        2.7989958400
 H          0.1002962314       -0.5772497517        3.6502841949
 H          1.7517244053        0.8026433123        2.4428614568
 H          1.8080009768        2.9780563791        0.9087214909
 C          0.9625245596        2.8960678507       -1.0534484177
 C          0.2187478328        4.1942355224       -0.9684198238
 C          1.6257513943        4.1686198831       -1.4834060606
 H          1.7941551429        4.3311994594       -2.5374080007
 H          2.4123342526        4.5551831200       -0.8517645101
 H         -0.5788507196        4.3803275324       -1.6717915258
 H          0.0464273224        4.6066797591        0.0141165355
 H          0.6841687740        2.1923982312       -1.8296157791
