  62
        -98.93407471
 C         -2.2271764112       -1.3318205902        0.1815949792
 C         -3.1669124610       -0.6693155898        1.0106702092
 C         -4.0139112507        0.3404080004        0.3625280591
 C         -3.8432788306        0.6089514903       -0.9441465909
 C         -4.6578085003        1.5574741805       -1.7837395609
 C         -4.5586961498        3.0516748405       -1.4208003110
 C         -5.6482532797        3.5433629809       -0.4597249210
 H         -5.9724262093        4.5365771110       -0.7768504711
 H         -6.5154178599        2.8877436211       -0.5476566210
 C         -5.2393678896        3.6565120908        1.0119382890
 H         -4.6428420794        4.5616738306        1.1474889689
 H         -6.1496672796        3.7708080511        1.6043043490
 C         -4.4288073900        2.4872135606        1.5712727890
 H         -3.4006041600        2.5458603702        1.2046829490
 H         -4.3752527700        2.5972680506        2.6562913990
 C         -4.9860709805        1.0929387507        1.2238507391
 H         -5.9519928404        1.1772813510        0.7282021991
 H         -5.1153099806        0.5062456408        2.1355403591
 H         -3.5680339797        3.2638034202       -1.0184699510
 H         -4.6520807596        3.6089408305       -2.3543644110
 H         -4.3022751103        1.4163059504       -2.8065491409
 H         -5.7041641304        1.2454524908       -1.7472344609
 O         -2.8921807608       -0.0102459400       -1.6942590509
 C         -2.0491314811       -0.9761750303       -1.1567649708
 O         -1.2156420512       -1.4201354306       -1.9668283608
 O         -3.2950874211       -0.9137690598        2.2404852192
 C         -1.3425782715       -2.3858528504        0.8244257893
 C          0.1026027486       -2.1203937309        0.4858816693
 C          0.9076719283       -3.0032922412       -0.2202155307
 C          2.2192080284       -2.6714804416       -0.5129353207
 C          2.7564033088       -1.4642075517       -0.1062177207
 C          1.9584689090       -0.5714532315        0.5975716092
 C          0.6469872689       -0.9077983310        0.8922375892
 H          0.0217550591       -0.2078268008        1.4345760192
 N          2.4978135594        0.6552951984        1.0271546692
 S          3.2871498797        1.6106325981       -0.1072632708
 O          3.1981725201        2.9579234981        0.4150435291
 O          2.7674762097        1.4040284682       -1.4391891708
 C          4.9803266896        1.0674065976       -0.0147780208
 C          5.6415305795        0.6815727673       -1.1642099807
 C          6.9638722893        0.2753089869       -1.0722121007
 C          7.5979601793        0.2635217867        0.1606739293
 C          6.9200290294        0.6557838470        1.3054805193
 C          5.5986584395        1.0642556874        1.2204239792
 H          5.0374321696        1.3792407976        2.0841790892
 H          7.4163499194        0.6447333569        2.2624548493
 H          8.6265032092       -0.0536831636        0.2295806593
 H          7.4918476792       -0.0299129033       -1.9613236407
 H          5.1046960195        0.7006970074       -2.0994819008
 H          1.8483369596        1.2146008286        1.5616909592
 H          3.7754585889       -1.2011810221       -0.3387165407
 H          2.8318305182       -3.3632259918       -1.0707353206
 H          0.5000038680       -3.9385043311       -0.5665883006
 H         -1.4700667215       -2.2193163103        1.9075280693
 C         -1.7756744020       -3.8192891303        0.5585691693
 C         -3.2164750121       -4.1549522799        0.3180607493
 C         -2.2193358121       -4.2952795502       -0.7908620607
 H         -1.9360094024       -5.2910429103       -1.0995108506
 H         -2.2353549019       -3.5777631602       -1.5958465907
 H         -3.6176141824       -5.0503429797        0.7685091893
 H         -3.9195418818       -3.3357807996        0.2721888993
 H         -1.2139083922       -4.5260710205        1.1615955193
