  62
        -98.94290667
 C         -1.9607300996       -0.6531405497        0.8144002196
 C         -2.8818345596       -1.1872907093       -0.1200669107
 C         -4.2502305096       -0.6504917394       -0.0510779104
 C         -4.5577424997        0.2737592602        0.8755499599
 C         -5.8921653897        0.9468127301        1.0100997402
 C         -5.9439736298        2.2418174904        0.1872595607
 C         -5.4616715598        2.0774849510       -1.2542073194
 H         -5.5720298498        3.0466310712       -1.7456791990
 H         -4.3949085997        1.8411040510       -1.2483928995
 C         -6.2142479997        1.0075636613       -2.0577206298
 H         -7.1615848297        0.7762953311       -1.5693551899
 H         -6.4487030297        1.4124003017       -3.0444900996
 C         -5.4300848197       -0.2867089386       -2.2819276003
 H         -4.4422598697       -0.0504678884       -2.6853547502
 H         -5.9588997496       -0.8777306483       -3.0343683305
 C         -5.2455793196       -1.1771366391       -1.0466674706
 H         -6.2121289696       -1.3519295093       -0.5703279807
 H         -4.8501178596       -2.1386286789       -1.3863527310
 H         -6.9708892198        2.6119236104        0.1898566908
 H         -5.3127051898        2.9877215003        0.6761202110
 H         -6.6733510197        0.2638420402        0.6821843999
 H         -6.0513163597        1.1884931297        2.0623687303
 O         -3.6563948097        0.7413965499        1.7767332301
 C         -2.3443764997        0.3025158300        1.7605221299
 O         -1.6238415597        0.8235594097        2.6367933101
 H          1.3955924003        0.8261900103        1.1905644201
 C          1.2408827903        0.5799859707        0.1503561800
 C          0.2985338803       -0.3742811492       -0.2064845303
 C          0.1074650004       -0.6534529887       -1.5565661305
 C          0.8428687103        0.0116962617       -2.5197760302
 C          1.7948949203        0.9495705316       -2.1591245198
 C          1.9936117503        1.2363980711       -0.8145991097
 N          2.9566034502        2.1830351810       -0.4136412494
 S          4.1405249803        1.7010373206        0.6677016104
 O          3.5543744503        1.4206816701        1.9525909903
 O          5.1317027002        2.7528089007        0.6259586508
 C          4.8043895303        0.2093375609       -0.0508172701
 C          5.8866854003        0.3045831213       -0.9038133001
 C          6.3556437004       -0.8428648884       -1.5227528506
 C          5.7286358604       -2.0577184885       -1.2899899610
 C          4.6414008104       -2.1362872389       -0.4333618010
 C          4.1730656204       -0.9935731092        0.1953533894
 H          3.3326801804       -1.0175479595        0.8693582494
 H          4.1513332405       -3.0793418790       -0.2520079814
 H          6.0894373704       -2.9497256783       -1.7772213614
 H          7.2036843804       -0.7860096881       -2.1859846905
 H          6.3449006203        1.2689356714       -1.0531336697
 H          3.3829584702        2.6790830613       -1.1839885192
 H          2.3737718303        1.4633526120       -2.9118389496
 H          0.6796190203       -0.2087389279       -3.5637314903
 H         -0.6387475596       -1.3783199086       -1.8419553107
 C         -0.4987387396       -1.0719342196        0.8700817794
 H         -0.1291493496       -0.7128900700        1.8405678595
 C         -0.3085507096       -2.5752228096        0.8155635688
 C          0.9165555305       -3.1757218198        1.4334814986
 C         -0.4216406695       -3.3686399901        2.0806168485
 H         -0.8836268995       -4.3434269101        2.0381628181
 H         -0.6299550895       -2.8270929204        2.9925516087
 H          1.3771678405       -4.0218866996        0.9476495782
 H          1.6145443504       -2.5081634799        1.9173440088
 H         -0.6941899895       -3.0288180993       -0.0872120014
 O         -2.6020227196       -2.0654607890       -0.9771531410
