  62
        -98.94576383
 C          2.2979790125        0.9874610044        0.2806919424
 C          2.1375921957        0.0968120956       -0.8084970563
 C          2.6243509612       -1.2734406045       -0.5899984283
 C          3.1382072905       -1.6086726931        0.6074523886
 C          3.6069928491       -2.9834769042        0.9850332127
 C          2.4693810142       -3.8111711648        1.5999967292
 C          1.1797550719       -3.7997532031        0.7784372707
 H          0.4641858988       -4.4442244917        1.2938756674
 H          0.7631034725       -2.7895932792        0.7795530648
 C          1.3497506232       -4.2737494179       -0.6716898436
 H          0.5413614321       -4.9664146882       -0.9138458959
 H          2.2854121363       -4.8247590999       -0.7728155552
 C          1.3067979518       -3.1519061523       -1.7105067777
 H          1.2159976150       -3.6076863934       -2.6996699824
 H          0.4210817327       -2.5331222877       -1.5486921608
 C          2.5320680009       -2.2309054389       -1.7448368872
 H          3.4429023630       -2.8285620222       -1.8202686356
 H          2.4526614047       -1.6090052440       -2.6411128300
 H          2.8176744910       -4.8387980751        1.7192696967
 H          2.2480596803       -3.4115274268        2.5925926877
 H          4.4089300682       -2.8841221663        1.7185713226
 H          3.9974974924       -3.4836785769        0.1009115817
 O          3.2413853977       -0.7339090817        1.6416939015
 C          2.8304173082        0.5819454593        1.5038178593
 O          2.9793423676        1.2781840131        2.5298441057
 O          1.6202186584        0.4253278098       -1.9066101500
 C          1.8592515663        2.4352226364        0.1466530367
 C          0.3718770180        2.4995950765       -0.1051042193
 C         -0.2026008296        3.2022177781       -1.1551385515
 C         -1.5779460733        3.2185124694       -1.3153017955
 C         -2.4063263337        2.5483677430       -0.4346141104
 C         -1.8420088449        1.8408574895        0.6204108882
 C         -0.4637099577        1.8205876039        0.7741266348
 H         -0.0219555748        1.2742934360        1.5990868398
 N         -2.6627937153        1.1775590273        1.5478287915
 S         -3.9720095543        0.2632013478        1.0576193100
 O         -4.9716058989        1.1283908624        0.4840921774
 O         -4.3641068938       -0.4755732859        2.2358537727
 C         -3.3538367157       -0.8588066286       -0.1812518773
 C         -2.7810114273       -2.0428351758        0.2398877663
 C         -2.2820874330       -2.9211511524       -0.7073251532
 C         -2.3517975846       -2.5957852906       -2.0536989625
 C         -2.9225535730       -1.4000412979       -2.4599417485
 C         -3.4319725999       -0.5211336397       -1.5171327219
 H         -3.8965425937        0.4094415117       -1.7972563759
 H         -2.9725336987       -1.1488629445       -3.5070821018
 H         -1.9592334949       -3.2794949595       -2.7897421759
 H         -1.8377181947       -3.8518636301       -0.3936559936
 H         -2.7544169211       -2.2629608741        1.2952371026
 H         -2.1529243518        0.7044211563        2.2787783252
 H         -3.4787368870        2.5705415177       -0.5390572625
 H         -2.0123911251        3.7682080294       -2.1364254250
 H          0.4243922241        3.7348974423       -1.8504605220
 H          2.0535674673        2.9021513532        1.1234803458
 C          2.6902441602        3.1420535252       -0.9030442187
 C          2.9046934885        4.6224561760       -0.8197610971
 C          4.0324415860        3.6834326233       -0.5163138972
 H          4.8443357525        3.6040409629       -1.2235759715
 H          4.3385801929        3.5635814764        0.5131244790
 H          2.9462223925        5.1910772214       -1.7364242540
 H          2.4479880868        5.1484063403        0.0050519791
 H          2.5985371807        2.6902309608       -1.8836071432
