  62
        -98.94030101
 C          2.3593968294        0.0419425302        0.1918460299
 C          3.4386847892        0.2226783903        1.0891766901
 C          4.7239338494       -0.3527958095        0.6729480302
 C          4.7996390896       -1.0119243395       -0.4980484398
 C          6.0579213898       -1.5962324293       -1.0705527197
 C          6.7814115498       -0.5841740191       -1.9701297295
 C          6.9632911695        0.7925392109       -1.3309342194
 H          7.5104543895        1.4124363210       -2.0444878893
 H          5.9825590494        1.2532499207       -1.1915876995
 C          7.7101297593        0.7765078609        0.0101142007
 H          8.2536213294       -0.1625144091        0.1204358307
 H          8.4487918092        1.5807797610        0.0093613309
 C          6.8185578191        0.9922191407        1.2342644906
 H          6.2030405090        1.8833392006        1.0871921805
 H          7.4637025290        1.1791432107        2.0968779807
 C          5.8942738092       -0.1761093294        1.5992874604
 H          5.4665633790        0.0342022504        2.5840204503
 H          6.4753863293       -1.0979955794        1.6668067804
 H          6.2018129699       -0.4610955591       -2.8878872496
 H          7.7568191499       -0.9952798690       -2.2364341794
 H          6.7108826597       -1.9064123692       -0.2570822396
 H          5.7909002900       -2.4714409693       -1.6650312698
 O          3.7359360398       -1.1820145895       -1.3248067300
 C          2.4912029097       -0.6584388197       -1.0070511501
 O          1.6067541498       -0.8841481898       -1.8544691103
 O          3.3298407990        0.8311793102        2.1883647901
 C          1.0066974293        0.6262939200        0.5484589397
 C         -0.0502615706       -0.4476518801        0.6306425895
 C          0.2451861294       -1.6520490901        1.2649344295
 C         -0.7099707204       -2.6426698503        1.3822466193
 C         -1.9900577904       -2.4463041004        0.8941787291
 C         -2.2980575605       -1.2462136804        0.2665594291
 C         -1.3294116406       -0.2605762403        0.1318635693
 H         -1.6000550706        0.6577125797       -0.3619721307
 N         -3.5835807104       -1.0091494205       -0.2459657210
 S         -4.2127460306        0.5522002294       -0.0980485310
 O         -3.8052374406        1.3315683295       -1.2397449509
 O         -3.8817056809        1.0957874893        1.1994171890
 C         -5.9620686306        0.2138324192       -0.1914185313
 C         -6.6662168507        0.0033259490        0.9795504786
 C         -8.0194454107       -0.2863556012        0.9057822083
 C         -8.6421971805       -0.3629456212       -0.3310688017
 C         -7.9228514903       -0.1483878710       -1.4973467916
 C         -6.5693360204        0.1423589591       -1.4307775514
 H         -5.9718136803        0.3250007793       -2.3087681613
 H         -8.4112391902       -0.2053424910       -2.4567481417
 H         -9.6956019304       -0.5878224513       -0.3860846219
 H         -8.5819870808       -0.4497336713        1.8108603083
 H         -6.1428190409        0.0841077690        1.9187670686
 H         -4.2539558404       -1.7141777006        0.0281562988
 H         -2.7393341803       -3.2169536405        0.9934859090
 H         -0.4600168904       -3.5731655603        1.8697270693
 H          1.2396644394       -1.8018803300        1.6633622396
 H          1.1281445391        1.0529238000        1.5566421198
 C          0.6491955793        1.7449718100       -0.4081842703
 C         -0.2127139810        2.8843268699        0.0441206697
 C          1.2489844791        3.1025532201       -0.2028075901
 H          1.5472142091        3.6719565902       -1.0702525300
 H          1.8969598089        3.2330889501        0.6517515600
 H         -0.9263379909        3.2974641998       -0.6536985404
 H         -0.5634786511        2.8713641798        1.0655405696
 H          0.5358977795        1.3962945600       -1.4293596403
