  62
        -98.93887116
 C          1.9977792750        1.3468326600        0.0104268073
 C          2.6047644677        0.7301181639        1.1277584609
 C          3.8224337985       -0.0558972506        0.8642016530
 C          4.2714254844       -0.1574312222       -0.3991072900
 C          5.4552678934       -0.9453207319       -0.8881364887
 C          5.0219153816       -2.3445663187       -1.3573208004
 C          4.9760926151       -3.4071267249       -0.2597019205
 H          4.5292783613       -4.3043658980       -0.6944016679
 H          5.9958926446       -3.6605067687        0.0374499754
 C          4.1842217041       -3.0209950487        0.9924441546
 H          3.9091357840       -3.9413212654        1.5116889894
 H          3.2557897995       -2.5259407683        0.7008597612
 C          4.9769825622       -2.1243530100        1.9554339825
 H          6.0257223811       -2.1252906803        1.6592808079
 H          4.9389578864       -2.5512370554        2.9598331166
 C          4.4740735158       -0.6774058270        2.0695475803
 H          3.7148090886       -0.6177036486        2.8558394671
 H          5.3028657789       -0.0362607625        2.3876978787
 H          5.7148896998       -2.6860227410       -2.1288988709
 H          4.0366963515       -2.2519100937       -1.8221233917
 H          6.2215915040       -1.0071297177       -0.1211984593
 H          5.8576069379       -0.4013778302       -1.7452523234
 O          3.6402420410        0.4308838773       -1.4519015818
 C          2.4921233337        1.1869281603       -1.2840416371
 O          2.0224011225        1.6505481446       -2.3392485658
 O          2.1420528169        0.8220605226        2.2982241984
 C          0.7443856604        2.1778001884        0.2207316480
 C         -0.4190891072        1.5326490250       -0.4913303258
 C         -1.2408349441        2.1988994631       -1.3896854727
 C         -2.2804164425        1.5314456427       -2.0158879026
 C         -2.5310704333        0.1981716865       -1.7521244258
 C         -1.7285651438       -0.4720640671       -0.8361042588
 C         -0.6877485020        0.1972759575       -0.2123099124
 H         -0.0603844485       -0.3267098280        0.4982566866
 N         -1.9896548027       -1.8201939548       -0.5407357447
 S         -3.5825573869       -2.2807760298       -0.3160588944
 O         -3.5256649790       -3.4137996137        0.5809970840
 O         -4.2020665500       -2.5244051922       -1.5950566804
 C         -4.3718393270       -0.8912004053        0.4786647112
 C         -5.4607636544       -0.2873928851       -0.1162394059
 C         -6.0445519857        0.8050074334        0.5051909084
 C         -5.5287217387        1.2748802416        1.7027330422
 C         -4.4362446085        0.6550131551        2.2901155833
 C         -3.8506494994       -0.4393566153        1.6749853452
 H         -3.0024120105       -0.9436457401        2.1099977103
 H         -4.0354786370        1.0212789289        3.2217235204
 H         -5.9796378353        2.1287657365        2.1830969483
 H         -6.8953456138        1.2874378583        0.0518525600
 H         -5.8258150774       -0.6825205945       -1.0502664334
 H         -1.3865265351       -2.2127438108        0.1665232540
 H         -3.3248781743       -0.3380603183       -2.2463498952
 H         -2.9028566389        2.0575855339       -2.7232078318
 H         -1.0611572708        3.2376167358       -1.6110210601
 H          0.5461219480        2.1335789493        1.3018436472
 C          0.9833804332        3.6198418381       -0.1707562069
 C          0.1800670278        4.7129807486        0.4661579269
 C          1.6254507750        4.5409874121        0.8215430551
 H          2.3378010764        5.2687823650        0.4629654327
 H          1.8712326387        4.1330044672        1.7912572028
 H         -0.1003161420        5.5643324674       -0.1352053676
 H         -0.5588219773        4.4271217460        1.1991052327
 H          1.2690788009        3.7294333936       -1.2105807068
