  62
        -98.94340119
 C          2.5044704168        1.1356346176       -0.0040136882
 C          3.4662729332        0.5967535295        0.8927792970
 C          4.4154704335       -0.3728248397        0.3338504683
 C          4.3429219848       -0.6801374395       -0.9736610660
 C          5.2081060153       -1.6900738546       -1.6687026688
 C          4.5628453485       -3.0829149916       -1.6464624935
 C          4.0750788236       -3.5161229136       -0.2638290184
 H          3.2524531016       -2.8664167737        0.0441410256
 H          3.6672541883       -4.5242605849       -0.3644149689
 C          5.1594171302       -3.5092873701        0.8228062554
 H          5.0793087380       -4.4310351598        1.4027842919
 H          6.1472289559       -3.5026056910        0.3606440663
 C          5.0562561096       -2.3490985342        1.8146838770
 H          5.7241312338       -2.5594089505        2.6542240816
 H          4.0391905693       -2.2951073533        2.2111234155
 C          5.4331945037       -0.9671233139        1.2661716414
 H          5.4998494914       -0.2796059430        2.1143425699
 H          6.4125222139       -1.0161719226        0.7858158098
 H          3.7070016219       -3.0787076873       -2.3254981675
 H          5.2899445709       -3.8056873889       -2.0210483815
 H          5.3388120109       -1.3759919371       -2.7056431174
 H          6.1816377358       -1.7212284134       -1.1833097285
 O          3.4273347979       -0.1292031836       -1.8076658698
 C          2.4810098470        0.7774630135       -1.3517507866
 O          1.7062264919        1.1690991877       -2.2490672775
 H         -0.2384038248        1.0836809412       -1.1968633431
 C         -0.6069650123        1.0168898284       -0.1838060278
 C          0.1764372448        1.4953394506        0.8569061668
 C         -0.3089582068        1.3911872132        2.1553126968
 C         -1.5459347672        0.8214628601        2.4015422218
 C         -2.3204475025        0.3395778129        1.3616281712
 C         -1.8433639543        0.4358724041        0.0607834702
 N         -2.6053780792       -0.0777805621       -1.0023923610
 S         -4.2236671666        0.3502368460       -1.1105992997
 O         -4.5686980045        0.1885591584       -2.5060899565
 O         -4.4686229158        1.6527976831       -0.5355382308
 C         -5.0593790301       -0.9021225994       -0.1592802557
 C         -4.8134627321       -2.2260957800       -0.4663582908
 C         -5.4644702530       -3.2125609899        0.2569446880
 C         -6.3479290153       -2.8607331900        1.2667580391
 C         -6.5867019631       -1.5270368285        1.5605147950
 C         -5.9377158472       -0.5352366473        0.8414311993
 H         -6.0869600341        0.5144213068        1.0382547909
 H         -7.2737577952       -1.2556767504        2.3458206361
 H         -6.8528949297       -3.6310070118        1.8279958244
 H         -5.2806570727       -4.2507993242        0.0318037072
 H         -4.1215702109       -2.4572518347       -1.2591813318
 H         -2.1483963596        0.0066662698       -1.8991528552
 H         -3.2837897167       -0.1067647739        1.5470320238
 H         -1.9101921708        0.7483461596        3.4148596354
 H          0.2960532684        1.7518854109        2.9744061357
 C          1.5185193530        2.1324470111        0.5827071022
 H          1.9518678830        2.4224032524        1.5494044199
 C          1.3564573220        3.3828432989       -0.2601179113
 C          0.8483587921        4.6343485654        0.3878465101
 C          2.2813127337        4.5406334326       -0.0414129252
 H          2.6039687130        5.1106380908       -0.8997299238
 H          3.0370932245        4.4384156783        0.7236888628
 H          0.1815781811        5.2702887049       -0.1741449477
 H          0.6326430642        4.5977187347        1.4449063579
 H          1.0466747254        3.1818386519       -1.2775385718
 O          3.5293023601        0.9205249335        2.1085220538
