  62
        -98.93651416
 C         -2.1875981365       -1.0326155724        0.4197353776
 C         -2.5031827476       -0.1934588888       -0.6755193207
 C         -3.4317217547        0.9103968415       -0.3889487461
 C         -3.8829361074        1.0947791666        0.8646525595
 C         -4.7926518244        2.1963105314        1.3411452472
 C         -6.2250858161        2.1871385522        0.7728811647
 C         -6.4197119086        3.0712565751       -0.4651161545
 H         -7.3854674669        3.5748238688       -0.3876584604
 H         -5.6585471982        3.8524356551       -0.4617326921
 C         -6.4017241998        2.3453965649       -1.8137987646
 H         -7.3623019169        1.8470249083       -1.9628782699
 H         -6.2978226694        3.0992569418       -2.5970959186
 C         -5.3079709651        1.2920362937       -1.9921878938
 H         -5.2810850993        1.0037955663       -3.0448270274
 H         -5.5711220757        0.3913153416       -1.4324664383
 C         -3.9019429752        1.7404115425       -1.5478392203
 H         -3.8981830651        2.7985025211       -1.2905159921
 H         -3.1856910192        1.5788109017       -2.3559368628
 H         -6.8801221384        2.5583416858        1.5626594664
 H         -6.5251549089        1.1612788271        0.5607210384
 H         -4.8390574990        2.0856064546        2.4265439500
 H         -4.3229897117        3.1584429649        1.1240190305
 O         -3.5135481112        0.2906442032        1.9008542053
 C         -2.6755863759       -0.7943598522        1.7033666295
 O         -2.4320036199       -1.4518900690        2.7370494087
 O         -2.0319629454       -0.3509734810       -1.8309161325
 C         -1.2680243511       -2.2226900071        0.2201746456
 C          0.0873792589       -1.7722005250       -0.2704123283
 C          0.7930869627       -2.4330759834       -1.2671667476
 C          2.0472572164       -1.9898459019       -1.6507257813
 C          2.6250608236       -0.8862494088       -1.0514160638
 C          1.9329660560       -0.2237146039       -0.0459782666
 C          0.6796986433       -0.6725249350        0.3387006402
 H          0.1450614588       -0.1574335046        1.1288946728
 N          2.5176983022        0.9019605621        0.5698331379
 S          3.9845518295        0.6478906238        1.3558426627
 O          4.0895261218       -0.7081457923        1.8445742405
 O          4.0722301452        1.6978540471        2.3475006720
 C          5.2055271179        0.9356887807        0.0928187645
 C          6.0755776546       -0.0755598749       -0.2650110154
 C          7.0214746016        0.1716598471       -1.2478247431
 C          7.0803969940        1.4187874507       -1.8509073837
 C          6.2008216111        2.4244333676       -1.4779696065
 C          5.2533452213        2.1843256054       -0.4956832398
 H          4.5550279725        2.9384055158       -0.1728325304
 H          6.2500143359        3.3929147424       -1.9490803263
 H          7.8163621520        1.6085683492       -2.6161679631
 H          7.7061398853       -0.6086225549       -1.5390124935
 H          5.9881422773       -1.0300787555        0.2287789259
 H          1.8841920923        1.3884968976        1.1884570587
 H          3.5974100023       -0.5329749339       -1.3533827671
 H          2.5807937615       -2.5105358928       -2.4310423319
 H          0.3599930827       -3.2957580497       -1.7459790349
 H         -1.1295667434       -2.6696118750        1.2165298719
 C         -1.9290464557       -3.2432224193       -0.6837106553
 C         -1.6399540852       -4.7037981430       -0.5163087327
 C         -2.9701135096       -4.1510757415       -0.1035919183
 H         -3.8379326917       -4.3895371867       -0.6999465292
 H         -3.1800586079       -4.0521221135        0.9519613124
 H         -1.5978627645       -5.3259557209       -1.3975675138
 H         -0.9487315169       -4.9913007843        0.2616879284
 H         -2.0977624789       -2.8628903531       -1.6844733372
