  62
        -98.94761391
 C          2.5289409464       -0.2904508786       -0.0105759642
 C          2.2156272306       -1.2998795782        0.9294619276
 C          1.5784732561       -2.5080273854        0.3918815371
 C          1.3511379155       -2.5971270531       -0.9312304960
 C          0.7105226764       -3.7709483826       -1.6143963782
 C         -0.8059981730       -3.5922969337       -1.7576575038
 C         -1.5143277272       -3.1990742542       -0.4610762632
 H         -1.2257763065       -2.1802145528       -0.1915001623
 H         -2.5860836310       -3.1739233339       -0.6742427594
 C         -1.2531872467       -4.1338949221        0.7276204997
 H         -2.1998269613       -4.3099512973        1.2425939056
 H         -0.8907241273       -5.0990726867        0.3705409763
 C         -0.2806404025       -3.5749284027        1.7684590668
 H         -0.3765270481       -4.1708323031        2.6804512079
 H         -0.5673251908       -2.5480217554        2.0133883110
 C          1.2011230759       -3.5849556345        1.3692647251
 H          1.7916362479       -3.3905622708        2.2695898335
 H          1.4736413618       -4.5707849959        0.9855558419
 H         -1.2266678688       -4.5260703504       -2.1369097787
 H         -0.9938491508       -2.8053017956       -2.4917435224
 H          0.9281378984       -4.6736629138       -1.0462127916
 H          1.1491937002       -3.8639806991       -2.6098004197
 O          1.6785755704       -1.6130234226       -1.8070303497
 C          2.2237745019       -0.4178054630       -1.3656926336
 O          2.4142060542        0.4233003825       -2.2659013564
 O          2.4659724946       -1.1962653083        2.1626677463
 C          3.0920723021        1.0292469524        0.4893631415
 C          2.0678730014        2.1097461580        0.2385647803
 C          2.3586126610        3.3516855778       -0.3099147954
 C          1.3416597580        4.2575467288       -0.5623162661
 C          0.0217868096        3.9399314168       -0.2986003035
 C         -0.2756193266        2.7058551576        0.2686800274
 C          0.7479169824        1.8216972195        0.5593301931
 H          0.5047173253        0.8690515899        1.0072103758
 N         -1.5984736135        2.3207834766        0.5572031883
 S         -1.9631356221        0.6897817600        0.2728160634
 O         -1.6329318613       -0.0684065321        1.4537188184
 O         -1.3625838159        0.2590861485       -0.9684941061
 C         -3.7361882375        0.7768328854        0.1041637183
 C         -4.5143455697        0.7994666845        1.2460686538
 C         -5.8902890467        0.9027274853        1.1164669782
 C         -6.4616007069        0.9819965849       -0.1449634898
 C         -5.6678778192        0.9555519799       -1.2818949218
 C         -4.2909559952        0.8538280576       -1.1591678056
 H         -3.6330083668        0.8199206105       -2.0130288664
 H         -6.1143524554        1.0131364069       -2.2614664884
 H         -7.5326435888        1.0615584372       -0.2432218518
 H         -6.5107125249        0.9200891038        1.9978363603
 H         -4.0247364471        0.7250947568        2.2030181144
 H         -2.2833537512        2.9308605373        0.1308056703
 H         -0.7707290483        4.6352511346       -0.5302604057
 H          1.5795536516        5.2175306895       -0.9950793320
 H          3.3772581821        3.6044367771       -0.5550377121
 H          3.2041044698        0.9057411243        1.5774765878
 C          4.4483323608        1.3205447928       -0.1145257670
 C          5.4425563296        2.1557934814        0.6342072356
 C          5.6622229987        0.6810024889        0.4878202821
 H          6.4434980734        0.3361298745       -0.1725061125
 H          5.5117479200        0.0512459001        1.3526140266
 H          6.0786665659        2.8246979358        0.0745765229
 H          5.1507334831        2.5296357190        1.6039556233
 H          4.4113936430        1.4076446562       -1.1944001895
