  62
        -98.94828162
 C          1.3578412945        1.1684949206       -0.0384998874
 C          2.1422888213        0.5971027900        0.9910250166
 C          2.6537717793       -0.7555247706        0.7358281527
 C          2.3260026938       -1.3770198550       -0.4115746068
 C          2.7982547383       -2.7434499654       -0.8138410272
 C          4.1025399201       -2.6688941278       -1.6201378722
 C          5.1795673039       -1.7992168869       -0.9720042775
 H          6.0636863013       -1.8451890287       -1.6113323805
 H          4.8414483121       -0.7605815345       -0.9633688422
 C          5.5587463216       -2.2183892190        0.4551065168
 H          6.6468257020       -2.2073080281        0.5468024248
 H          5.2280540315       -3.2407238753        0.6418338229
 C          5.0110126233       -1.3026156792        1.5514299479
 H          5.2599853515       -0.2638627169        1.3198905561
 H          5.5111842636       -1.5575715051        2.4895755320
 C          3.5000750922       -1.3905316017        1.8025814590
 H          3.2089400536       -2.4326237201        1.9533900477
 H          3.2811792676       -0.8414781846        2.7235512600
 H          3.8766134271       -2.2563817391       -2.6059478380
 H          4.4828763523       -3.6830828082       -1.7543310074
 H          2.0244935351       -3.2057197491       -1.4293976362
 H          2.9426390121       -3.3474440330        0.0800436049
 O          1.5530502710       -0.8054990679       -1.3687869415
 C          1.0522643721        0.4802306819       -1.2112798002
 O          0.3614294091        0.8800672191       -2.1672893318
 O          2.4003279269        1.1922646448        2.0730672373
 C          0.7632230823        2.5501640855        0.1653811921
 C         -0.7436481425        2.4586430758        0.1478024991
 C         -1.5564249268        3.3021424077       -0.5981545934
 C         -2.9322000606        3.1505523920       -0.5736026038
 C         -3.5228983194        2.1567355176        0.1844641626
 C         -2.7195277285        1.3139580023        0.9449310823
 C         -1.3440124660        1.4793928917        0.9311448823
 H         -0.7294739501        0.8195099339        1.5270617163
 N         -3.2879818710        0.3024258927        1.7443332317
 S         -2.7747569819       -1.2793967711        1.5654561846
 O         -3.6887019842       -2.0527039660        2.3777419268
 O         -1.3762043609       -1.3903253211        1.8918324527
 C         -3.0439607577       -1.6504292945       -0.1562866871
 C         -4.2230714548       -2.2552008503       -0.5469242934
 C         -4.4439339596       -2.4797119688       -1.8962108999
 C         -3.4945290199       -2.0857774785       -2.8280407780
 C         -2.3185413107       -1.4755862014       -2.4198187662
 C         -2.0893841318       -1.2574131613       -1.0711255417
 H         -1.1837770233       -0.7861314303       -0.7247982290
 H         -1.5730182435       -1.1527896429       -3.1295550715
 H         -3.6697432318       -2.2548550958       -3.8788091298
 H         -5.3557140849       -2.9565895119       -2.2181033174
 H         -4.9314377058       -2.5468564868        0.2116397430
 H         -4.2981498444        0.3260424093        1.7709901422
 H         -4.5952187704        2.0332803299        0.1941696509
 H         -3.5520286069        3.8100228301       -1.1615253853
 H         -1.1130130535        4.0754676072       -1.2032370973
 H          1.0731709768        2.8540710752        1.1767121946
 C          1.3298468018        3.5346329505       -0.8355414927
 C          1.4274238714        4.9898017684       -0.4902129433
 C          2.6674997753        4.1519793972       -0.5622478071
 H          3.3460009825        4.3005632249       -1.3888415117
 H          3.1586202534        3.8811300274        0.3613057849
 H          1.2576815023        5.7175430090       -1.2692337382
 H          1.0801947015        5.2965217796        0.4848426398
 H          1.1052998863        3.2626965998       -1.8605991066
