  62
        -98.93927346
 C         -1.7081199216       -1.3461157086        0.4175051377
 C         -1.3357991566       -0.2383703504       -0.3792981672
 C         -1.9106455906        1.0639284489       -0.0026938312
 C         -2.6877759010        1.1542496320        1.0884908419
 C         -3.3289601991        2.3825077539        1.6842321610
 C         -3.9976884237        3.3729404158        0.7197444806
 C         -4.6170296732        2.7428180953       -0.5365728531
 H         -4.6613065739        1.6579130560       -0.4270857745
 H         -5.6425190632        3.1014210079       -0.6427462657
 C         -3.8602790310        3.0978163894       -1.8188707896
 H         -4.5269709614        2.9488406942       -2.6715228801
 H         -3.6000859499        4.1579868765       -1.7880319518
 C         -2.5965733558        2.2803002219       -2.0838588293
 H         -2.0931480252        2.7116625806       -2.9520600289
 H         -2.8693757145        1.2546906448       -2.3465323784
 C         -1.5966404176        2.2123965869       -0.9175945988
 H         -0.6047903391        2.0093317969       -1.3299287378
 H         -1.5535808263        3.1539995336       -0.3753373607
 H         -4.7730743975        3.8897328490        1.2878581424
 H         -3.2744301008        4.1292674003        0.4176278420
 H         -4.0703369821        2.0013967648        2.3910757481
 H         -2.5671814491        2.9067009339        2.2695220411
 O         -2.9778266177        0.0709650052        1.8644701400
 C         -2.4915143255       -1.1882433912        1.5608903865
 O         -2.8212909468       -2.0749300953        2.3759559804
 O         -0.5544645878       -0.3180685194       -1.3627019238
 C         -1.1596528356       -2.7377832436        0.1492688444
 C          0.3231216016       -2.6450617861       -0.1192911218
 C          0.9559037255       -3.2138497618       -1.2168010019
 C          2.3207502822       -3.0632415496       -1.3951574425
 C          3.0755078738       -2.3241072931       -0.5032216979
 C          2.4501833458       -1.7511055601        0.5983855452
 C          1.0943500930       -1.9423687667        0.7993700726
 H          0.6227332718       -1.4914168287        1.6613499276
 N          3.1628404905       -0.9574347627        1.5238406423
 S          2.7501464975        0.6667501037        1.5953636179
 O          3.6300088981        1.2350053137        2.5950993263
 O          1.3369091722        0.8071218732        1.8352111984
 C          3.1977517059        1.3101844614       -0.0081829956
 C          4.3877929351        2.0019860110       -0.1331257193
 C          4.7754291428        2.4527747015       -1.3842429667
 C          3.9746292895        2.1959747246       -2.4871761916
 C          2.7870994324        1.4954072603       -2.3450353873
 C          2.3897372196        1.0434014880       -1.0952830097
 H          1.4672309123        0.4980129260       -0.9652923544
 H          2.1592838730        1.2898256342       -3.1973285115
 H          4.2763062719        2.5437835484       -3.4626245049
 H          5.6984017462        2.9988120226       -1.4951773613
 H          4.9752552568        2.1786364221        0.7534805911
 H          4.1672796494       -1.0332424774        1.4321037268
 H          4.1348769185       -2.1832448435       -0.6573233249
 H          2.7986525012       -3.5102223062       -2.2534634400
 H          0.3788860651       -3.7575098795       -1.9465276838
 H         -1.2932610070       -3.2812736491        1.1000014981
 C         -1.9232755670       -3.5187517814       -0.9104073219
 C         -3.3535654733       -3.1982040405       -1.2245408931
 C         -2.2840169003       -2.9184536761       -2.2348209193
 H         -2.2351135232       -3.5457787513       -3.1127970650
 H         -1.9944916345       -1.8948460347       -2.4100870251
 H         -4.0340017023       -4.0172585876       -1.4037286703
 H         -3.8042480121       -2.3633261973       -0.7069823714
 H         -1.6619880441       -4.5724234773       -0.9054064530
