  62
        -98.95136462
 C         -1.8305295614       -1.2420495081       -0.2861684195
 C         -2.9106853869       -0.5452485043        0.3022885084
 C         -3.2119565222        0.7688591210       -0.2740393406
 C         -2.4830577244        1.2278071515       -1.3079088324
 C         -2.6562692302        2.5561481326       -1.9919441996
 C         -1.9309778580        3.7034077397       -1.2749016773
 C         -2.5995540048        4.1848976697        0.0134319900
 H         -2.1334936421        5.1357851624        0.2797209095
 H         -3.6569548380        4.3786610746       -0.1730921374
 C         -2.4484749820        3.2189024786        1.1969302239
 H         -2.1690778690        3.7819996035        2.0912813687
 H         -1.6265868385        2.5266550316        0.9956270849
 C         -3.7115254835        2.4271946862        1.5387380321
 H         -3.4733436010        1.7450463614        2.3591940082
 H         -4.4886773944        3.1126150649        1.8858248776
 C         -4.2775193748        1.5956863778        0.3802417010
 H         -5.0272252458        0.9113900689        0.7859891226
 H         -4.7565945812        2.2469117441       -0.3505247204
 H         -1.8755933671        4.5446547004       -1.9701626505
 H         -0.9101325026        3.3831761018       -1.0494006516
 H         -2.2312625455        2.4500561893       -2.9923643303
 H         -3.7167572353        2.7921194706       -2.0857331228
 O         -1.4819756798        0.5076576514       -1.8754207040
 C         -1.0981460762       -0.7129312805       -1.3480239626
 O         -0.1157734005       -1.2320545773       -1.9148259928
 H         -0.2262431939       -0.4427963202        1.4752570652
 C          0.4833703116       -1.2430973891        1.3233444901
 C          0.0686956020       -2.4366082255        0.7459256582
 C          1.0051560919       -3.4499259294        0.5832278459
 C          2.3238647003       -3.2554324295        0.9583988256
 C          2.7428687364       -2.0427142000        1.4745726878
 C          1.8103282004       -1.0277652761        1.6522405583
 N          2.1774051103        0.2485587576        2.1333724242
 S          2.0400051129        1.5019925007        1.0230250587
 O          2.5259405288        2.6759760283        1.7168969814
 O          0.6944345819        1.5711012594        0.5188840147
 C          3.1957878586        1.0555531016       -0.2601285857
 C          4.4791204853        1.5644313961       -0.1891435561
 C          5.4151999143        1.1614152162       -1.1268356142
 C          5.0563741270        0.2500714965       -2.1091168755
 C          3.7662267772       -0.2534371825       -2.1632862629
 C          2.8211145271        0.1483249367       -1.2305552733
 H          1.8102087092       -0.2292312365       -1.2616181309
 H          3.4785344008       -0.9617096024       -2.9236730372
 H          5.7849975027       -0.0693045918       -2.8375056556
 H          6.4182767471        1.5546110723       -1.0874296980
 H          4.7091578787        2.2723914617        0.5909080810
 H          3.1034879562        0.2767917495        2.5391645660
 H          3.7779475912       -1.8787010524        1.7343128925
 H          3.0395793048       -4.0519418444        0.8240699578
 H          0.7036501475       -4.3909286625        0.1527581132
 C         -1.3742138166       -2.5571470930        0.3185141043
 H         -1.9956519123       -2.7019210800        1.2152911487
 C         -1.6219209785       -3.7047040871       -0.6386742446
 C         -1.9354348963       -5.0749796616       -0.1180554947
 C         -3.0103019528       -4.2543694041       -0.7629858448
 H         -3.3657999447       -4.5412389538       -1.7411830395
 H         -3.7718248148       -3.8180985230       -0.1330612116
 H         -1.9753066383       -5.2068490738        0.9526447579
 H         -1.5554662856       -5.9304388471       -0.6559756253
 H         -1.0336082186       -3.6208018328       -1.5456116117
 O         -3.5832424707       -0.9969764151        1.2698429213
