  62
        -98.93922973
 C          0.9656462502        1.2455037979       -0.3471853551
 C          2.0599739129        1.4444385811        0.5329926847
 C          2.9853902683        0.3164283829        0.7215564093
 C          2.7610070608       -0.8345463417        0.0610258834
 C          3.4912380994       -2.1599058883        0.1067939327
 C          4.9171121414       -2.2481170064        0.6468734821
 C          5.9648289264       -1.4940710770       -0.1698560913
 H          6.9224756702       -1.5751017316        0.3494481366
 H          6.0713390657       -1.9832635103       -1.1413498123
 C          5.6641048291       -0.0191498546       -0.4255613189
 H          6.5057981652        0.4015497996       -0.9827137218
 H          4.7819670886        0.0710037860       -1.0628403255
 C          5.4616700264        0.8349229263        0.8253007799
 H          5.4383395937        1.8804665093        0.5065166308
 H          6.3131049506        0.7104492171        1.4971440145
 C          4.1668103673        0.5645807034        1.6139880646
 H          4.2940879272       -0.2552528976        2.3170303218
 H          3.9314750665        1.4611426845        2.1945128435
 H          4.9491499170       -1.9286614610        1.6842752641
 H          5.1888324192       -3.3071789946        0.6328261613
 H          2.8586244851       -2.8269137663        0.7017120334
 H          3.4720323741       -2.5423463440       -0.9180630819
 O          1.7016891539       -0.9788766428       -0.7836962349
 C          0.7878386009        0.0367654152       -1.0187907529
 O         -0.0995954950       -0.2809316674       -1.8346455387
 H         -1.7185192494        0.3263062876       -0.3159731722
 C         -1.9490760669        1.0992126548        0.3990300774
 C         -1.1746380107        2.2503025791        0.4390313200
 C         -1.4952056785        3.2426077204        1.3575515016
 C         -2.5711311152        3.0854016961        2.2132815427
 C         -3.3414731031        1.9379572886        2.1710538974
 C         -3.0234987543        0.9348570241        1.2604711783
 N         -3.7471970903       -0.2612459594        1.2406503759
 S         -3.8120321064       -1.2624082765       -0.0905702490
 O         -3.9880056424       -0.5180733048       -1.3155975727
 O         -4.8822128991       -2.1873609797        0.2285047735
 C         -2.2790725026       -2.1659831986       -0.0915529451
 C         -1.6034978120       -2.3765872099        1.0933251392
 C         -0.4492701174       -3.1426402878        1.0767644566
 C          0.0012673383       -3.6904639278       -0.1140198695
 C         -0.6884025589       -3.4688380262       -1.2943707731
 C         -1.8392312161       -2.6983215463       -1.2857389225
 H         -2.3919183347       -2.4839996043       -2.1864064519
 H         -0.3282986871       -3.8808476093       -2.2233491068
 H          0.8986315595       -4.2892072446       -0.1261382208
 H          0.0955654070       -3.3061781652        1.9934531839
 H         -1.9743999426       -1.9333329476        2.0031040257
 H         -4.5798572905       -0.2957477123        1.8083258715
 H         -4.1784864482        1.8119533273        2.8404259843
 H         -2.8123020913        3.8632903022        2.9216635524
 H         -0.8877513987        4.1341047122        1.4065328186
 C          0.0000008034        2.4080127427       -0.4976038825
 H          0.5638461587        3.2964758730       -0.1812522994
 C         -0.4901896461        2.6319398471       -1.9142783949
 C         -0.9243482554        4.0060109260       -2.3246079298
 C          0.3487782666        3.4287578843       -2.8654643684
 H          0.3829858754        3.1237793032       -3.9005037286
 H          1.2841355364        3.8231357707       -2.4954003811
 H         -1.7704958841        4.0996142726       -2.9880068391
 H         -0.8501122700        4.7959820055       -1.5925891869
 H         -1.0391237434        1.7905155245       -2.3178014943
 O          2.2552159236        2.5292600274        1.1449848235
