  62
        -98.93809071
 C         -1.2396470417       -1.5607455639        0.5196263789
 C         -1.5773896309       -0.5068820687        1.4004070735
 C         -2.7891525120        0.2515585981        1.0698894088
 C         -3.4940977935       -0.0840469389       -0.0254889949
 C         -4.7351366041        0.6170577396       -0.4952719546
 C         -4.4091170463        1.7296951365       -1.5002205621
 C         -3.3072781279        2.6850388360       -1.0403116898
 H         -2.3501720043        2.1581376500       -1.0083473062
 H         -3.2105915127        3.4600862332       -1.8046013024
 C         -3.5601629134        3.3448391231        0.3223122525
 H         -3.3020278378        4.4033233784        0.2469598143
 H         -4.6196082219        3.2844934625        0.5766132070
 C         -2.7233636844        2.7650606495        1.4644655332
 H         -2.7674870186        3.4597689983        2.3080200667
 H         -1.6800757996        2.7012648754        1.1422493920
 C         -3.1636816934        1.3876600899        1.9784687581
 H         -4.2386206743        1.3929230036        2.1723611475
 H         -2.6446340973        1.2016046447        2.9234702807
 H         -5.3228635530        2.2955360536       -1.6936135084
 H         -4.0897249146        1.2683409884       -2.4376325266
 H         -5.3797956888       -0.1181439223       -0.9806562401
 H         -5.2574526094        1.0323026041        0.3645623948
 O         -3.1335657162       -1.0942572735       -0.8571077124
 C         -1.9765573746       -1.8308406403       -0.6339735591
 O         -1.7289735538       -2.6734311570       -1.5143124834
 O         -0.8902664706       -0.2117252302        2.4173241943
 C          0.0357017636       -2.3534911977        0.7778398975
 C          0.9867328874       -2.1138499720       -0.3741960924
 C          1.7733914122       -3.0360813677       -1.0520572484
 C          2.6142790445       -2.6274413799       -2.0765064060
 C          2.7148183748       -1.3001582514       -2.4449693723
 C          1.9382523775       -0.3628247660       -1.7721205535
 C          1.0994766395       -0.7787967238       -0.7552795396
 H          0.4882850363       -0.0401239933       -0.2635338578
 N          1.9776348012        0.9969804965       -2.1061917691
 S          1.6613221644        2.1754532092       -0.9653286424
 O          0.2612281297        2.1927643128       -0.6263060155
 O          2.1783566997        3.3870185772       -1.5667089425
 C          2.6680873253        1.7405937453        0.4418330224
 C          4.0359111773        1.8735101542        0.2920046749
 C          4.8673345299        1.5179389276        1.3402180821
 C          4.3195886123        1.0317646196        2.5182130198
 C          2.9463747376        0.9095827791        2.6552410902
 C          2.1076538011        1.2673030138        1.6100443897
 H          1.0363354933        1.1723744179        1.7019832840
 H          2.5113401922        0.5327096870        3.5672332059
 H          4.9650121081        0.7489687035        3.3347608714
 H          5.9357046460        1.6180441365        1.2365798656
 H          4.4208512461        2.2685840377       -0.6340325790
 H          2.6961236608        1.2682128476       -2.7595937739
 H          3.3699352798       -0.9926312402       -3.2451494966
 H          3.2067983351       -3.3660163043       -2.5951228656
 H          1.7404587465       -4.0832563457       -0.8136933683
 H          0.4923432602       -1.8612493533        1.6549859136
 C         -0.3480443973       -3.7526889891        1.2339300811
 C         -0.4838837629       -4.9546963405        0.3541959538
 C          0.5955417369       -4.9075386707        1.3958185996
 H          0.4747912109       -5.5290528979        2.2710968702
 H          1.6227099524       -4.7877571571        1.0940410628
 H         -1.3305051221       -5.6042895248        0.5235571013
 H         -0.2386486639       -4.8465203287       -0.6891950750
 H         -1.1013689527       -3.6657696690        2.0149794508
