  62
        -98.94894254
 C         -0.8375025577       -1.3781096571        0.1849163095
 C         -1.4410392785       -0.3554349829        0.9519071579
 C         -2.2793440765        0.5903248527        0.2077169943
 C         -2.3679261788        0.4905679932       -1.1314145236
 C         -3.1276035593        1.4232251234       -2.0363970651
 C         -4.6169527771        1.0830347321       -2.1826348744
 C         -5.4740611804        1.3916013133       -0.9545029137
 H         -5.3093047939        2.4256160936       -0.6500528470
 H         -6.5178157963        1.3045119991       -1.2625242726
 C         -5.2292599731        0.4552686717        0.2368705199
 H         -6.1879647694        0.1291986437        0.6461985664
 H         -4.7064648818       -0.4404550836       -0.1063309683
 C         -4.4370402559        1.0820488629        1.3839277212
 H         -4.2983176285        0.3222072994        2.1569876221
 H         -5.0108704504        1.9037596019        1.8178187372
 C         -3.0514943639        1.6113106107        0.9879146365
 H         -3.1493806375        2.5357826592        0.4183675119
 H         -2.4927565290        1.8137722368        1.9044087800
 H         -5.0021748014        1.6618808005       -3.0253053223
 H         -4.7090133079        0.0245940161       -2.4370045866
 H         -3.0206707833        2.4481673080       -1.6786593220
 H         -2.6550381629        1.3505804011       -3.0188090280
 O         -1.7416503498       -0.4864940715       -1.8387636722
 C         -0.9730446999       -1.4486250422       -1.2023719194
 O         -0.4809619243       -2.3020080132       -1.9657820139
 H          1.3896975507       -0.1528124947        0.3702298157
 C          1.9743020157       -1.0173790631        0.0903854141
 C          1.4513451840       -2.2874189022        0.2996740876
 C          2.2239725110       -3.3878381533       -0.0463938820
 C          3.4692632095       -3.2117078028       -0.6254334031
 C          3.9587252731       -1.9454698613       -0.8871058828
 C          3.1990090372       -0.8374997640       -0.5280509441
 N          3.6551320935        0.4676193964       -0.7650991064
 S          2.5556409396        1.6742861299       -1.1363584430
 O          1.4264028525        1.1822532439       -1.8907045565
 O          3.3564068944        2.6906103649       -1.7895781795
 C          2.0340506873        2.3025587067        0.4448078664
 C          0.7084891749        2.6370705543        0.6347003154
 C          0.3220625022        3.1798477273        1.8497180674
 C          1.2616218318        3.3708419600        2.8502835232
 C          2.5891385523        3.0271493320        2.6445879923
 C          2.9840606602        2.4930258670        1.4288784623
 H          4.0061513721        2.2174815728        1.2300285154
 H          3.3160373135        3.1745807176        3.4269953671
 H          0.9542121714        3.7882327157        3.7960747176
 H         -0.7101405830        3.4461509411        2.0096000348
 H          0.0039665458        2.4511457375       -0.1621065007
 H          4.4954883458        0.5355386207       -1.3206193908
 H          4.9146213660       -1.8111972028       -1.3699601292
 H          4.0580964989       -4.0746368506       -0.8973524256
 H          1.8459724870       -4.3829961024        0.1212724825
 C          0.0620367074       -2.3845941106        0.8797020670
 H          0.1004209255       -2.0659814930        1.9323570187
 C         -0.5297349926       -3.7763594568        0.8103661733
 C         -0.2513085736       -4.7724532395        1.8953212742
 C         -1.6099065016       -4.1516942935        1.7788224050
 H         -2.4294035188       -4.7600068972        1.4265561479
 H         -1.8993180866       -3.4096265596        2.5084790177
 H         -0.1399313049       -5.8115939868        1.6246867794
 H          0.3798825752       -4.4576884443        2.7123166569
 H         -0.6227240938       -4.1364739310       -0.2082826622
 O         -1.2790269879       -0.2319111246        2.1961484396
