  62
        -98.93655167
 C          1.8101354816        1.2230362832       -0.0437150579
 C          2.4459750192        0.4774256366        0.9736980463
 C          3.6400324155       -0.2954953896        0.5843183098
 C          4.0509368004       -0.2573946118       -0.6961908348
 C          5.2286215580       -0.9535530039       -1.3302548162
 C          6.5494761184       -0.9235028686       -0.5456880563
 C          6.9469171731       -2.2845790093        0.0281822988
 H          8.0287270635       -2.2983074779        0.1782983539
 H          6.7111163330       -3.0548295171       -0.7091853190
 C          6.2917684771       -2.6436799899        1.3607883543
 H          6.7240002864       -2.0287791274        2.1532094522
 H          6.5433376479       -3.6834025438        1.5831006158
 C          4.7703555956       -2.4874871214        1.4056519416
 H          4.3932558419       -3.1287941933        2.2054058001
 H          4.3223771474       -2.8415527516        0.4776702669
 C          4.3076395744       -1.0526550181        1.7001494347
 H          5.1474968725       -0.4602092274        2.0745721102
 H          3.5671368865       -1.0647482114        2.5061905388
 H          6.4927713036       -0.1796353063        0.2475034669
 H          7.3363597331       -0.6048873762       -1.2312062337
 H          4.9470646539       -1.9878190568       -1.5436380228
 H          5.3597025062       -0.4626220109       -2.2972632076
 O          3.3845191792        0.4498651294       -1.6531234312
 C          2.2541314637        1.1960974916       -1.3650202973
 O          1.7547314340        1.7738473676       -2.3477204323
 H         -0.2400454924       -0.4727014803        0.3182085792
 C         -0.8926659072        0.1362690063       -0.2951286321
 C         -0.6203171072        1.4932711381       -0.4274246994
 C         -1.4731214889        2.2664408732       -1.2027638520
 C         -2.5491380150        1.6852815748       -1.8530111191
 C         -2.8048474981        0.3322203256       -1.7355262139
 C         -1.9691418143       -0.4470213932       -0.9440899374
 N         -2.2332128401       -1.8193381377       -0.7979139066
 S         -3.8163566405       -2.2833397575       -0.5160263011
 O         -3.7222702894       -3.5266650074        0.2166342379
 O         -4.5338858296       -2.3441542996       -1.7650663790
 C         -4.5047351649       -0.9982175257        0.5131394627
 C         -3.9093538150       -0.7547047655        1.7351199205
 C         -4.4077167978        0.2623414212        2.5326289888
 C         -5.4878548990        1.0148822699        2.0969667651
 C         -6.0784003101        0.7539922191        0.8705158614
 C         -5.5824708703       -0.2607069354        0.0674941117
 H         -6.0085432340       -0.4949637656       -0.8943750230
 H         -6.9193843987        1.3392664831        0.5354499854
 H         -5.8705703083        1.8084618055        2.7190275774
 H         -3.9489535154        0.4657671247        3.4870091717
 H         -3.0732704860       -1.3596045248        2.0483445920
 H         -1.5932063221       -2.2977608695       -0.1816465999
 H         -3.6284233872       -0.1362629480       -2.2494534751
 H         -3.1962706564        2.2957604562       -2.4638175404
 H         -1.2901652811        3.3225715218       -1.3093851921
 C          0.5802532124        2.0429931544        0.3030310246
 H          0.4217519511        1.8858488265        1.3801975810
 C          0.8281998215        3.5155262488        0.0575401429
 C          0.0672120045        4.5448310352        0.8370251795
 C          1.5218781600        4.3184943523        1.1156111559
 H          2.2319196868        5.0715572296        0.8082399862
 H          1.7969464139        3.8072264577        2.0266992238
 H         -0.6482072185        4.1919126603        1.5640102356
 H         -0.2216355135        5.4584817263        0.3401008205
 H          1.0760911522        3.7311325738       -0.9754399598
 O          2.0281602970        0.4489614399        2.1642284400
