  62
        -98.94096432
 C         -2.5559493345       -0.2634036236        0.5377484277
 C         -2.2968495926        0.3116861904       -0.7311222757
 C         -2.1632826104        1.7760246848       -0.7580926361
 C         -2.2784345174        2.4748064728        0.3843317890
 C         -2.1612023629        3.9670451995        0.4974345305
 C         -0.7276219428        4.4082251426        0.8192293330
 C          0.3385446181        3.7883025240       -0.0844960340
 H          1.2957951846        4.2333959277        0.1978991738
 H          0.4174379685        2.7185029215        0.1238934459
 C          0.1052348277        3.9956211303       -1.5873277748
 H          1.0565965282        4.2648954416       -2.0507552843
 H         -0.5812443843        4.8284837913       -1.7470011730
 C         -0.4132223502        2.7573739244       -2.3217508726
 H         -0.2790191606        2.9145314096       -3.3955235382
 H          0.1868156623        1.8895776617       -2.0341738114
 C         -1.8907025283        2.4157657233       -2.0897399650
 H         -2.5038495576        3.3096301726       -2.2244748109
 H         -2.1857965048        1.6779782996       -2.8416736059
 H         -0.5016800429        4.1284545254        1.8511051654
 H         -0.6818187532        5.4969011858        0.7442036869
 H         -2.4892734885        4.4191126693       -0.4368653929
 H         -2.8203679114        4.2993379273        1.3019418920
 O         -2.5042259106        1.8874360465        1.5888436617
 C         -2.6099797734        0.5106646671        1.6977906670
 O         -2.7578179802        0.1012908857        2.8689902105
 H         -0.1076161036       -1.0720066346        0.8158883485
 C         -0.2427063878       -1.9127979957        0.1497596994
 C         -1.5188117141       -2.4329275732       -0.0335691302
 C         -1.6740914672       -3.5240210828       -0.8764407467
 C         -0.5757696773       -4.0651638110       -1.5246212702
 C          0.6855859878       -3.5254519380       -1.3628524631
 C          0.8490667566       -2.4231130338       -0.5280049870
 N          2.1049823361       -1.8059522131       -0.4053004553
 S          2.3687232183       -0.5508072845        0.6736888676
 O          2.2208327300       -1.0065741295        2.0410678972
 O          1.5665693874        0.5793063687        0.2818385846
 C          4.0875592790       -0.2242284064        0.3338588787
 C          4.4108622542        0.6286085523       -0.7040883676
 C          5.7470170020        0.8600701996       -0.9901312576
 C          6.7324002245        0.2368857757       -0.2388476803
 C          6.3930705986       -0.6147080250        0.8017583521
 C          5.0585320087       -0.8499820610        1.0927856301
 H          4.7473114695       -1.4933549097        1.9001002565
 H          7.1610649264       -1.0945183374        1.3867704888
 H          7.7714772965        0.4188329252       -0.4635304878
 H          6.0139224689        1.5246482747       -1.7958930058
 H          3.6099648578        1.0953978231       -1.2539195954
 H          2.8930482178       -2.4283958013       -0.5033047893
 H          1.5351925694       -3.9358328356       -1.8859933126
 H         -0.7088503844       -4.9151672137       -2.1767407383
 H         -2.6536648963       -3.9408671801       -1.0432991545
 C         -2.6462317693       -1.7694219452        0.7212864425
 H         -2.4629182519       -1.9325890792        1.7977728256
 C         -4.0147195635       -2.3627022868        0.4198028559
 C         -5.2513421184       -1.5161235485        0.4540429635
 C         -4.7514773307       -2.0596911383       -0.8488927933
 H         -5.3114515098       -2.8551846940       -1.3184348869
 H         -4.2809892860       -1.3827467051       -1.5437304423
 H         -6.1481504915       -1.9389220206        0.8818099318
 H         -5.1295445806       -0.4604577575        0.6505861608
 H         -4.1165971632       -3.3686012299        0.8156093224
 O         -2.1936259980       -0.3508436318       -1.7958657293
