  62
        -98.94428120
 C          1.9951188518        0.8659706794        0.3106266661
 C          2.3244081774       -0.3285840159       -0.3743813130
 C          3.6117156205       -0.9428489752       -0.0129688049
 C          4.3686200264       -0.3871461839        0.9496201711
 C          5.7183438720       -0.8827459348        1.3786230401
 C          6.8383398694       -0.2051655780        0.5765260180
 C          6.6121683474       -0.2220130963       -0.9352651189
 H          5.7416721245        0.3938669690       -1.1722886139
 H          7.4785793075        0.2545271104       -1.3989528757
 C          6.4185186196       -1.6228124140       -1.5325165937
 H          7.0159870794       -1.7008124438       -2.4433561780
 H          6.7893359731       -2.3767563263       -0.8371565846
 C          4.9755206468       -1.9547168254       -1.9172381623
 H          4.5699022461       -1.1541232103       -2.5409352517
 H          4.9862439157       -2.8662085357       -2.5209776019
 C          4.0103455105       -2.1916675881       -0.7486549239
 H          3.0856434577       -2.6067572781       -1.1602165223
 H          4.4372966530       -2.9246276313       -0.0611133983
 H          6.9143563710        0.8356233614        0.8997303753
 H          7.7808040029       -0.7032466268        0.8111898007
 H          5.8491989889       -0.6499144836        2.4367796169
 H          5.7636198827       -1.9620305256        1.2465407203
 O          4.0024414706        0.7362543970        1.6160803793
 C          2.8255662296        1.3931234899        1.3062560584
 O          2.6281766227        2.4267350163        1.9751864176
 O          1.6011489508       -0.8744835229       -1.2511306471
 C          0.7241733078        1.6592357946        0.0426916956
 C         -0.4610426486        1.0196980229        0.7256710519
 C         -1.0689633510        1.6346710137        1.8139436618
 C         -2.1585869407        1.0510120106        2.4368277644
 C         -2.6666028816       -0.1528606662        1.9835796315
 C         -2.0644988692       -0.7747687480        0.8970225181
 C         -0.9741368836       -0.1873858566        0.2723735596
 H         -0.4977603820       -0.6856975610       -0.5585681843
 N         -2.5872186732       -1.9905412736        0.4192698249
 S         -4.2376740916       -2.0280519697        0.1364246282
 O         -4.9314763576       -2.3014925143        1.3708405879
 O         -4.4296586953       -2.9964985330       -0.9203281793
 C         -4.6409535445       -0.3838959535       -0.4293874769
 C         -4.0371585071        0.0724679711       -1.5844906522
 C         -4.2982543583        1.3639639943       -2.0109710424
 C         -5.1516867648        2.1744900230       -1.2781604346
 C         -5.7541177571        1.6997379723       -0.1238298948
 C         -5.4958196838        0.4087523602        0.3086042151
 H         -5.9387068170        0.0009528751        1.2025677703
 H         -6.4187874720        2.3314815808        0.4430374266
 H         -5.3473342969        3.1817077699       -1.6104992107
 H         -3.8317418339        1.7347422274       -2.9094151108
 H         -3.3795320253       -0.5822471702       -2.1337226747
 H         -2.0721524433       -2.3668069914       -0.3636067643
 H         -3.5125095529       -0.6250541644        2.4566930908
 H         -2.6178138528        1.5385578440        3.2830620313
 H         -0.6702013179        2.5699282516        2.1792212283
 H          0.8869857572        2.6392293145        0.5100448075
 C          0.4605335119        1.8715365137       -1.4359952758
 C         -0.4823831540        2.9571847029       -1.8552712895
 C          0.9882841068        3.1035011277       -2.1044916342
 H          1.3528199159        3.0235907681       -3.1178154771
 H          1.5428708450        3.8040957703       -1.4970170856
 H         -1.1291914818        2.7778212112       -2.6998461620
 H         -0.9281149840        3.5594732546       -1.0785072895
 H          0.4650588362        0.9563285241       -2.0123866880
