  62
        -98.94405027
 C         -1.7569983698       -1.2224963297        0.4163759204
 C         -1.8664257100       -0.2994080396       -0.6514351696
 C         -3.2338260401       -0.0230765897       -1.1180187495
 C         -4.2696258700       -0.6641174199       -0.5465396794
 C         -5.7135269500       -0.4385302800       -0.8880846893
 C         -6.3317177201        0.6446620598        0.0068571608
 C         -5.4972110402        1.9225511899        0.0947748808
 H         -6.0445817303        2.6261511998        0.7257999109
 H         -4.5556327702        1.7012928400        0.6028968408
 C         -5.1966277804        2.5785908600       -1.2601058691
 H         -5.8888032504        2.2040293300       -2.0150965991
 H         -5.3631166005        3.6543626800       -1.1728863591
 C         -3.7602764504        2.3899925703       -1.7526821492
 H         -3.0594154604        2.6773132903       -0.9640453293
 H         -3.5977112705        3.0686363603       -2.5945122592
 C         -3.3961394602        0.9774099803       -2.2273922094
 H         -4.1325000902        0.6324840403       -2.9562559694
 H         -2.4222177703        1.0362375905       -2.7225184194
 H         -7.3258293301        0.8830414697       -0.3755033592
 H         -6.4433247200        0.2390047197        1.0150089807
 H         -5.7936991801       -0.1500779600       -1.9342061193
 H         -6.2532743699       -1.3745808701       -0.7355089194
 O         -4.1205678998       -1.5672443600        0.4558696605
 C         -2.8687862397       -1.8528782599        0.9754527404
 O         -2.8761795596       -2.6716072999        1.9168252103
 H          2.0930976601       -0.4481531392        0.5272837502
 C          1.5045310901        0.1261244307        1.2207647503
 C          0.2291592801       -0.2914137795        1.5641379303
 C         -0.4964043199        0.4685340203        2.4789488104
 C          0.0399016000        1.6173850003        3.0259648505
 C          1.3085354599        2.0394408905        2.6654164804
 C          2.0415727799        1.2902555307        1.7553082103
 N          3.3453565599        1.6679170309        1.3857334103
 S          3.7008252098        1.8209705010       -0.2506792997
 O          4.9167408497        2.6080821712       -0.2748423797
 O          2.5847611997        2.3631424910       -0.9885659696
 C          4.0811263499        0.1708161111       -0.7958681699
 C          5.1342382400       -0.4894802188       -0.1938131600
 C          5.4563746702       -1.7661990887       -0.6249972801
 C          4.7277357202       -2.3537028487       -1.6486997701
 C          3.6750294901       -1.6751024788       -2.2446161500
 C          3.3449089499       -0.3988370189       -1.8158802899
 H          2.5220542499        0.1581358510       -2.2369684698
 H          3.1055114301       -2.1350515188       -3.0367387600
 H          4.9789691803       -3.3477762887       -1.9843418702
 H          6.2718337703       -2.2994797387       -0.1637646502
 H          5.6785288200        0.0063046512        0.5923849500
 H          3.6952343698        2.4730717309        1.8868278103
 H          1.7260820398        2.9423651205        3.0854617805
 H         -0.5350681400        2.1949963902        3.7344347606
 H         -1.4900340899        0.1416446102        2.7557987205
 C         -0.3954493298       -1.5471381796        1.0051438903
 H         -0.5871090896       -2.2303993296        1.8455297302
 C          0.4733119403       -2.2575289494       -0.0110374998
 C          1.5608209704       -3.1795531793        0.4499985200
 C          0.3238507704       -3.7376206894       -0.1856121199
 H          0.3935291804       -4.1477204493       -1.1816808000
 H         -0.3961306095       -4.2408625995        0.4435097801
 H          2.4839434804       -3.2073344891       -0.1088529900
 H          1.6839399605       -3.3091760593        1.5145117400
 H          0.6459334701       -1.6638826693       -0.9013025998
 O         -0.8777271401        0.2633993606       -1.1903401196
