  62
        -98.94487018
 C          1.9302751701        0.1868293505        0.0456059910
 C          2.9543766399        1.0453091504        0.5130038917
 C          4.2616118300        0.4189965905        0.7475673915
 C          4.4042102302       -0.9023329793        0.5365549907
 C          5.6915055503       -1.6590187792        0.6875657304
 C          6.4684807605       -1.7039809683       -0.6356675495
 C          6.6147690004       -0.3412867279       -1.3129874887
 H          7.2039565605       -0.4913157672       -2.2203176387
 H          5.6282171004        0.0089593922       -1.6253058686
 C          7.2816337301        0.7327530817       -0.4421676879
 H          7.8180594101        0.2608191113        0.3817893819
 H          8.0192910201        1.2646958222       -1.0467065375
 C          6.3206894998        1.7844974412        0.1152163626
 H          5.7141821499        2.1930989116       -0.6969910573
 H          6.9154808596        2.6054205911        0.5244163731
 C          5.3779552098        1.3043096904        1.2257924522
 H          5.9546263397        0.8094254701        2.0097304919
 H          4.8964783695        2.1865945101        1.6575194826
 H          7.4570917206       -2.1239644982       -0.4413135596
 H          5.9441050507       -2.3727189080       -1.3222573899
 H          6.2961524002       -1.1872351996        1.4596718408
 H          5.4561771005       -2.6792582294        0.9952419798
 O          3.3908328104       -1.6995913993        0.1118307501
 C          2.1319700804       -1.1787274193       -0.1541854498
 O          1.3034621606       -2.0198826392       -0.5504142304
 H         -1.7092549296       -0.6803675995       -0.9230531700
 C         -1.5550915198       -0.5911680801        0.1385584501
 C         -0.4675256100        0.1023755998        0.6433783007
 C         -0.2995193302        0.1675187590        2.0254019007
 C         -1.1880275002       -0.4588385817        2.8759882102
 C         -2.2717231800       -1.1544631416        2.3674884397
 C         -2.4516690998       -1.2230167808        0.9919241696
 N         -3.5321266496       -1.9400629207        0.4541195890
 S         -4.4535598695       -1.3115329901       -0.7890998407
 O         -5.6318299994       -2.1493979803       -0.8229788214
 O         -3.6848969794       -1.2406541492       -2.0046219406
 C         -4.8919176899        0.3244884295       -0.2308571798
 C         -4.1093338400        1.4021928599       -0.5922225091
 C         -4.4255065603        2.6552734895       -0.0909185884
 C         -5.5111338104        2.8082677788        0.7572975616
 C         -6.2902181703        1.7157046085        1.1074295008
 C         -5.9767129800        0.4599810688        0.6139087101
 H         -6.5611628799       -0.4137634914        0.8526821995
 H         -7.1370298604        1.8388152479        1.7631937608
 H         -5.7523181307        3.7855021985        1.1448100321
 H         -3.8218072904        3.5060062198       -0.3642192078
 H         -3.2766347699        1.2464690704       -1.2576387090
 H         -4.1206712496       -2.3839202412        1.1437397587
 H         -2.9640656400       -1.6522157421        3.0294056793
 H         -1.0399752003       -0.4049396123        3.9439635903
 H          0.5492266297        0.7090090089        2.4204687712
 C          0.5580101000        0.7755991305       -0.2335375588
 H          0.6305978198        1.8303485603        0.0702030018
 C          0.2425370003        0.7177682613       -1.7123939889
 C         -0.6825889598        1.7269360615       -2.3216619684
 C          0.7863622102        1.7843775519       -2.6132475782
 H          1.1315390804        1.5020673125       -3.5966037783
 H          1.3674147400        2.5716320017       -2.1552581176
 H         -1.0910575401        2.4840896210       -1.6691958980
 H         -1.3520669197        1.4044861918       -3.1056890687
 H          0.2212694305       -0.2944567685       -2.1012071195
 O          2.7809253797        2.2750736703        0.7277183024
