  62
        -98.94473633
 C         -0.3432653573       -1.7969199294       -0.9499098264
 C         -1.4439922291       -2.2284689963       -0.1675524990
 C         -2.6954619959       -1.4769995414       -0.3194931757
 C         -2.7350574859       -0.4382419424       -1.1724625840
 C         -3.9461921637        0.4088603582       -1.4396967884
 C         -4.0025771312        1.6444238432       -0.5319429608
 C         -3.7539082756        1.3431213339        0.9461382985
 H         -3.8536360119        2.2858098225        1.4907001475
 H         -2.7215104000        1.0107892904        1.0862817474
 C         -4.7108321635        0.3053960703        1.5497133146
 H         -5.6007472146        0.2139718503        0.9250103632
 H         -5.0361494995        0.6636399247        2.5288508005
 C         -4.0973791396       -1.0795175295        1.7662745646
 H         -4.7636700647       -1.6475078951        2.4216327054
 H         -3.1390621110       -0.9739165889        2.2826019987
 C         -3.8739872021       -1.9173552152        0.5006501828
 H         -4.7860188071       -1.9278537957       -0.1004010343
 H         -3.6552416443       -2.9428591341        0.8128878255
 H         -4.9832942014        2.1109505534       -0.6471822306
 H         -3.2488215381        2.3610749971       -0.8664182649
 H         -4.8379340703       -0.1981254427       -1.2932736417
 H         -3.9095724904        0.7362553598       -2.4804483904
 O         -1.6579345651       -0.0356997107       -1.8889598361
 C         -0.4244890517       -0.6736959102       -1.7742812824
 O          0.4683196940       -0.1468535029       -2.4599549362
 O         -1.3832287441       -3.2200712291        0.6105058843
 C          0.9549938224       -2.5630384871       -0.7601186590
 C          1.6733691538       -2.0451261814        0.4606256052
 C          2.2584125074       -2.9046783509        1.3827977921
 C          2.8788081792       -2.4028352276        2.5136265628
 C          2.8984795531       -1.0418902689        2.7619879165
 C          2.3108475203       -0.1756603644        1.8474432739
 C          1.7332104597       -0.6791379175        0.6927510555
 H          1.2924784010        0.0011691456       -0.0192411408
 N          2.2821212810        1.2109154635        2.0586779204
 S          0.8961773354        2.0469322296        1.6146373365
 O          0.9218255192        3.2430804362        2.4333935275
 O         -0.2851394893        1.2256172007        1.7456044173
 C          1.1574686104        2.5174011073       -0.0797231484
 C          0.0546868174        2.6519871848       -0.8971990636
 C          0.2351572190        3.0543384455       -2.2097232969
 C          1.5120054746        3.3178988951       -2.6775867308
 C          2.6098656189        3.1844130178       -1.8419384826
 C          2.4355109138        2.7837832014       -0.5274752469
 H          3.2671510364        2.6604299043        0.1463772667
 H          3.6022751797        3.3844178679       -2.2131158713
 H          1.6514708368        3.6210015386       -3.7032608035
 H         -0.6182028952        3.1439728500       -2.8626621993
 H         -0.9186089995        2.4147127502       -0.4964338079
 H          2.6367281419        1.5181465645        2.9529992479
 H          3.3534660502       -0.6519267076        3.6597104811
 H          3.3312899410       -3.0795333396        3.2225080052
 H          2.2048797077       -3.9713330608        1.2217378005
 H          0.6498014415       -3.5997285991       -0.5422341211
 C          1.8407013240       -2.5961031967       -1.9958950172
 C          3.0806947477       -1.7702324587       -2.1338984842
 C          3.1892007963       -3.2514976399       -1.9425163329
 H          3.4978600333       -3.8610909161       -2.7781169848
 H          3.5351152545       -3.6061594419       -0.9836456853
 H          3.2938311101       -1.3481256199       -3.1034501940
 H          3.3528556542       -1.1263784949       -1.3121919459
 H          1.2618056149       -2.7465929830       -2.9010267967
