  62
        -98.94472256
 C         -1.8100847325       -0.5223216204       -0.5103585649
 C         -2.8567170109       -1.3039898119        0.0351138291
 C         -4.2172251743       -0.8223776377       -0.2268552417
 C         -4.4013245957        0.2860755526       -0.9671071321
 C         -5.7284101157        0.8879301271       -1.3426152248
 C         -6.3229603946        1.8078978173       -0.2674105160
 C         -6.8691859765        1.0939075459        0.9696863928
 H         -7.4456786868        1.8288324725        1.5350387649
 H         -7.5589767796        0.3085311185        0.6591642373
 C         -5.7900091261        0.5016612288        1.8867774675
 H         -4.8235658834        0.9522445681        1.6488109387
 H         -6.0146415550        0.7563808533        2.9249989341
 C         -5.6596949259       -1.0196674080        1.8112431988
 H         -4.8451391689       -1.3272392382        2.4718594223
 H         -6.5795792110       -1.4845365366        2.1726431264
 C         -5.3590995004       -1.5587767821        0.4064317180
 H         -5.0685600483       -2.6082756451        0.4965047066
 H         -6.2485496836       -1.4943929405       -0.2197730344
 H         -5.5603177772        2.5295950884        0.0344729101
 H         -7.1412454984        2.3639665130       -0.7307732825
 H         -5.5567299410        1.4790870883       -2.2447646590
 H         -6.4381038398        0.0940974836       -1.5772498938
 O         -3.3683133534        0.9984674538       -1.4912194897
 C         -2.0502650257        0.6290507825       -1.2599572855
 O         -1.2081583709        1.3911574621       -1.7717641008
 O         -2.6622384338       -2.3504277167        0.7093635782
 C         -0.3735709169       -0.9511247682       -0.2678429643
 C          0.3733668473        0.1454610818        0.4478807302
 C         -0.1642530822        0.6488286992        1.6311894363
 C          0.4607364561        1.6726870441        2.3137464391
 C          1.6453493215        2.2089580521        1.8390536401
 C          2.1959659991        1.7080083099        0.6663041811
 C          1.5655805331        0.6755350554       -0.0181751817
 H          2.0050549652        0.3210692215       -0.9352292754
 N          3.3925433489        2.2360887270        0.1659783122
 S          4.4831406213        1.2853288307       -0.6569423812
 O          5.7422630174        1.9869525516       -0.5185965886
 O          4.0450548245        1.0522854693       -2.0101137611
 C          4.5545867521       -0.2619652248        0.2311715678
 C          4.6207410791       -0.2476411348        1.6105287324
 C          4.6867944472       -1.4528802640        2.2904763464
 C          4.6931219963       -2.6465405380        1.5851326336
 C          4.6372656845       -2.6444324918        0.2004291542
 C          4.5667113262       -1.4414615890       -0.4839579790
 H          4.5143438421       -1.3930547568       -1.5595381480
 H          4.6443225914       -3.5724327454       -0.3486352673
 H          4.7424864438       -3.5833491092        2.1173984379
 H          4.7319550536       -1.4575631601        3.3676004574
 H          4.6196328628        0.6924642395        2.1371085156
 H          3.8420313617        2.9274150409        0.7468304712
 H          2.1322666996        3.0163696444        2.3642926506
 H          0.0261321666        2.0573874915        3.2239998435
 H         -1.0903881623        0.2298217642        2.0004121658
 H         -0.4399122431       -1.8181773191        0.4061829847
 C          0.2692475520       -1.3938384030       -1.5641008433
 C          1.3708023064       -2.4091445912       -1.5509854071
 C          0.0113712029       -2.7855165731       -2.0564663897
 H         -0.1228031347       -2.9410583302       -3.1164765648
 H         -0.6077334057       -3.4207813929       -1.4400393091
 H          2.1708827853       -2.3028560220       -2.2675769916
 H          1.6832914768       -2.7946613026       -0.5924061487
 H          0.3118073520       -0.6017651241       -2.3040203918
