  62
        -98.94174943
 C         -1.7080934633       -0.4754988007       -0.2854372073
 C         -2.8259601249       -1.2914662567        0.0293469494
 C         -4.1430731352       -0.7548809657       -0.3286562926
 C         -4.2327453935        0.4533169102       -0.9127404780
 C         -5.5000830474        1.1271662941       -1.3643286573
 C         -6.2353862615        1.8853695196       -0.2506990178
 C         -6.9384879550        1.0033994910        0.7819686903
 H         -7.5884210808        1.6548179057        1.3696103283
 H         -7.5773960003        0.2840416463        0.2686785042
 C         -5.9885541629        0.2642373887        1.7347641777
 H         -5.0010002703        0.7300578728        1.6973536373
 H         -6.3507821147        0.3648374487        2.7603835283
 C         -5.8421495517       -1.2306648453        1.4505587450
 H         -5.1212303421       -1.6455162105        2.1594593013
 H         -6.7998023086       -1.7300316040        1.6132097773
 C         -5.3548318105       -1.5596371228        0.0334039492
 H         -6.1535706456       -1.3894488181       -0.6882903702
 H         -5.0743860967       -2.6153807294        0.0040357760
 H         -5.5223522416        2.5413342958        0.2542236259
 H         -6.9869171508        2.5177759016       -0.7290649465
 H         -6.1695837260        0.3891084861       -1.8072342377
 H         -5.2124607939        1.8438963276       -2.1366928141
 O         -3.1408331795        1.2156598631       -1.1808273507
 C         -1.8559927827        0.7894975747       -0.8567142977
 O         -0.9726851005        1.6228195136       -1.1297737924
 O         -2.7258477946       -2.4168880952        0.5854079233
 C         -0.3339605291       -1.0096780126        0.0776063572
 C          0.4800468829        0.0450932159        0.7810615548
 C          0.0907694816        0.4572623242        2.0532823865
 C          0.8016178680        1.4291093625        2.7295226370
 C          1.9296798336        1.9952384418        2.1613028223
 C          2.3245818385        1.5931341346        0.8915132196
 C          1.6011422041        0.6240477281        0.2091126941
 H          1.8992724594        0.3665660272       -0.7926184364
 N          3.4608543261        2.1474762389        0.2890305044
 S          4.4170358486        1.2326945255       -0.7232175002
 O          5.7174468139        1.8663774442       -0.6542371982
 O          3.8384836119        1.1399891334       -2.0396950328
 C          4.4924079107       -0.3868236722        0.0245037178
 C          4.8889816789       -0.4889644410        1.3433352343
 C          4.9425957725       -1.7416204139        1.9323627518
 C          4.6042654368       -2.8667748527        1.1961305246
 C          4.2175754689       -2.7492770039       -0.1296566269
 C          4.1592839451       -1.4978618674       -0.7225282363
 H          3.8571264167       -1.3599942266       -1.7486091214
 H          3.9572096143       -3.6254024256       -0.7023271420
 H          4.6430093952       -3.8412001714        1.6568422279
 H          5.2455427151       -1.8369843881        2.9625316035
 H          5.1536560405        0.4025809837        1.8877784288
 H          3.9960430933        2.7799364953        0.8640922552
 H          2.4891068894        2.7533577562        2.6878245277
 H          0.4821621724        1.7447368278        3.7112822144
 H         -0.7881773514        0.0121069834        2.4994320424
 H         -0.5411225368       -1.8157014690        0.8014260024
 C          0.4140633724       -1.6531931622       -1.0800043938
 C         -0.3167710581       -2.3605291219       -2.1803614614
 C          0.4066239616       -1.0796211530       -2.4638298305
 H          1.3202602879       -1.1133095468       -3.0402874158
 H         -0.1716217926       -0.1845872946       -2.6335972453
 H          0.0958002916       -3.2818171580       -2.5628336015
 H         -1.3966595830       -2.3406177848       -2.1580204628
 H          1.3437509127       -2.1070020064       -0.7493338283
