  62
        -98.94515702
 C         -1.5368361800       -0.8053824739        0.0686671594
 C         -2.8138296210       -1.4071482852        0.1563913861
 C         -3.9066213121       -0.5233402640        0.5785406761
 C         -3.6474504841        0.7630781995        0.8765881903
 C         -4.6515257227        1.7815928403        1.3447117937
 C         -5.4329118299        2.4565984063        0.2091308529
 C         -6.4802979821        1.5757473080       -0.4731729248
 H         -7.1309901360        1.1345721407        0.2825542801
 H         -7.0974744530        2.2312206550       -1.0909610290
 C         -5.8950794324        0.4686395175       -1.3611451085
 H         -4.8492727684        0.6931256566       -1.5829278725
 H         -6.4268647056        0.4473156669       -2.3151007819
 C         -5.9818179173       -0.9355895091       -0.7632380417
 H         -7.0296231758       -1.2265032626       -0.6597982250
 H         -5.5060798866       -1.6333027630       -1.4572338771
 C         -5.2965794655       -1.0839376661        0.6015197190
 H         -5.8911917710       -0.5990651690        1.3755618151
 H         -5.2215457168       -2.1493125475        0.8334894507
 H         -5.9417887746        3.3245554797        0.6347701883
 H         -4.7219908639        2.8204504182       -0.5360957578
 H         -4.0881634010        2.5496642864        1.8787614417
 H         -5.3495441166        1.3158646807        2.0409955267
 O         -2.3991626804        1.2966777401        0.8039851069
 C         -1.3156147259        0.5356006337        0.3852671950
 O         -0.2372664135        1.1538760848        0.3455572426
 O         -3.0284329397       -2.6235625299       -0.0966420209
 C         -0.3550647222       -1.6400432115       -0.3877756471
 C          0.7463017018       -1.5916226697        0.6410528913
 C          0.4347021450       -1.8250177001        1.9786244554
 C          1.4125552351       -1.7691475694        2.9518137875
 C          2.7217437705       -1.4698432793        2.6158516991
 C          3.0461163760       -1.2510687934        1.2832082208
 C          2.0636228429       -1.3257965270        0.3044819477
 H          2.3489205731       -1.1759535555       -0.7222688376
 N          4.3654362395       -0.9680578094        0.9081922735
 S          4.7022545642       -0.0164335208       -0.4201859063
 O          4.5144689896       -0.7740060288       -1.6325624028
 O          6.0511794579        0.4523913955       -0.1808295202
 C          3.5698079148        1.3597032301       -0.3710142996
 C          3.5184293987        2.1321308284        0.7712669976
 C          2.6567062273        3.2150600313        0.8080321277
 C          1.8678407110        3.5083502467       -0.2924630260
 C          1.9350791398        2.7266451886       -1.4334548224
 C          2.7924703172        1.6402444929       -1.4748661147
 H          2.8700200672        1.0021453351       -2.3414508473
 H          1.3145478342        2.9534774891       -2.2860805654
 H          1.1903233648        4.3468053873       -0.2587559040
 H          2.5962595023        3.8233618886        1.6963555695
 H          4.1479769182        1.8839153776        1.6105891587
 H          5.0067276273       -0.8043682019        1.6694681852
 H          3.4851231864       -1.4121708937        3.3764834692
 H          1.1538438698       -1.9500118183        3.9843182676
 H         -0.5903514354       -2.0446375805        2.2449901912
 H         -0.7278555201       -2.6734386330       -0.4505077555
 C          0.0916946398       -1.1960976255       -1.7650363836
 C          0.7651548336       -2.1618135358       -2.6920805917
 C         -0.6346598751       -1.7056004770       -2.9721062866
 H         -0.8038940235       -1.0299157609       -3.7971026200
 H         -1.4423933206       -2.4037775790       -2.8070422511
 H          1.5663000535       -1.8025626438       -3.3210874385
 H          0.9082746738       -3.1729121503       -2.3415898562
 H          0.4196890884       -0.1620618480       -1.7772446667
