  62
        -98.94134868
 C          1.8166882077        0.9768905403        0.6887492933
 C          2.0527450354       -0.4121436363        0.8734365248
 C          3.4322771983       -0.8713643185        0.6866800205
 C          4.3929592895        0.0193340019        0.3818318766
 C          5.8558439055       -0.2804028543        0.1971832862
 C          6.2204242809       -0.7788431530       -1.2078027362
 C          5.7699405717       -2.2044792402       -1.5286497751
 H          6.2757306294       -2.5003376332       -2.4499550924
 H          6.1096444306       -2.8774463533       -0.7407324384
 C          4.2553321450       -2.3599525057       -1.7250242850
 H          3.8069033015       -1.3781351132       -1.8943452420
 H          4.0639648589       -2.9565639831       -2.6198196342
 C          3.5307163409       -3.0403313029       -0.5634324151
 H          2.4623777538       -3.0620046064       -0.7929217328
 H          3.8772759093       -4.0718719214       -0.4697177413
 C          3.7098690731       -2.3406242896        0.7902142257
 H          4.7165112875       -2.5110594766        1.1715917512
 H          2.9904860853       -2.7654613231        1.4942858845
 H          5.7996267262       -0.0893083112       -1.9433173718
 H          7.3084476702       -0.7353085917       -1.2963696009
 H          6.1754611885       -1.0132786223        0.9386528143
 H          6.3896293616        0.6547624305        0.3798024444
 O          4.1323265153        1.3419986994        0.2234266005
 C          2.8461694366        1.8523626674        0.3424423314
 O          2.7838430783        3.0783501109        0.1211329289
 O          1.1481850615       -1.2287248731        1.1927082481
 C          0.3864914360        1.4445525815        0.8870560892
 C         -0.3692756359        1.5574752615       -0.4155487943
 C          0.0636480612        2.3879483738       -1.4436200393
 C         -0.6721335347        2.4945535237       -2.6095612528
 C         -1.8594599235        1.7998311745       -2.7627146840
 C         -2.3024484891        0.9704500102       -1.7395908281
 C         -1.5464056470        0.8431554612       -0.5828378914
 H         -1.8856036521        0.1829551472        0.2005712671
 N         -3.4971975070        0.2483014528       -1.8609832138
 S         -4.4937827140        0.0485142324       -0.5305588508
 O         -5.7983733173       -0.2228050678       -1.0954849241
 O         -4.4121215064        1.1749801263        0.3691036806
 C         -3.8909308067       -1.4260673270        0.2621795361
 C         -3.7234877691       -2.5618583590       -0.5047501770
 C         -3.2728354117       -3.7205644176        0.1062692703
 C         -3.0018002663       -3.7251972971        1.4662181594
 C         -3.1798977092       -2.5780711354        2.2234172282
 C         -3.6294736391       -1.4156412204        1.6176509443
 H         -3.7747050728       -0.4992969739        2.1685930074
 H         -2.9659987164       -2.5825477648        3.2803140920
 H         -2.6475420115       -4.6272122286        1.9397372206
 H         -3.1317452576       -4.6154674039       -0.4782591935
 H         -3.9465544910       -2.5204933568       -1.5578525980
 H         -4.0223613833        0.4285218517       -2.7040628878
 H         -2.4396608633        1.8984289272       -3.6677384933
 H         -0.3248724269        3.1382329190       -3.4038931493
 H          0.9786363318        2.9463950826       -1.3184492895
 H         -0.0939343001        0.6485110986        1.4726004604
 C          0.2613502997        2.7444470269        1.6602192183
 C         -1.0776576544        3.1225525658        2.2172226129
 C          0.0270889491        2.7025287076        3.1388523797
 H          0.4970238598        3.4534823377        3.7561536578
 H         -0.0406133881        1.7315944455        3.6075714105
 H         -1.3641983418        4.1631108914        2.2002622450
 H         -1.9022221511        2.4441328726        2.0518388792
 H          0.8872003918        3.5376877625        1.2728935105
