  62
        -98.93705700
 C          1.8680643807        1.1536469807       -0.1760508220
 C          2.3564206806       -0.0636947798       -0.7068570909
 C          3.8139126806       -0.2600021999       -0.6317797910
 C          4.5801162207        0.7019525206       -0.0862366020
 C          6.0642791208        0.6167349906        0.1310289078
 C          6.3678805709       -0.2687822082        1.3564841485
 C          7.1124117308       -1.5632620186        1.0294196296
 H          8.1599521807       -1.3293536089        0.8282970692
 H          7.0805885409       -2.1930940078        1.9209837102
 C          6.5733313105       -2.3597821497       -0.1627159496
 H          6.9284716703       -1.9142231405       -1.0931577701
 H          7.0167033304       -3.3562358096       -0.1062483088
 C          5.0478155705       -2.5038146296       -0.2393032792
 H          4.5997144306       -2.3971892987        0.7488416008
 H          4.8188177803       -3.5144518399       -0.5836916282
 C          4.3607003303       -1.5325118605       -1.2173071399
 H          5.0455019202       -1.2934343613       -2.0359037203
 H          3.4909512502       -2.0337729008       -1.6529101693
 H          6.9639871511        0.2959143424        2.0748530179
 H          5.4229754310       -0.5061839677        1.8496748589
 H          6.5432485406        0.2156264698       -0.7593767020
 H          6.4270752309        1.6314026508        0.2961342968
 O          4.0710471909        1.8583209411        0.4131239370
 C          2.7103995309        2.1137480811        0.3837882270
 O          2.3801163911        3.2090184516        0.8812200261
 H         -1.6291230395       -0.2605055099       -1.0774464700
 C         -1.3580169793       -0.3941813789       -0.0444162799
 C         -0.3703615392        0.3831316415        0.5375103292
 C         -0.0393482589        0.1545175527        1.8717114693
 C         -0.6685431689       -0.8380024566        2.5961735704
 C         -1.6498335391       -1.6182584970        2.0088467913
 C         -1.9913546093       -1.3963766882        0.6808018411
 N         -2.9671066895       -2.1902243387        0.0584089320
 S         -4.1347795796       -1.5149057295       -0.9259860484
 O         -5.1273956797       -2.5564872996       -1.0722113372
 O         -3.5476927098       -1.0178267807       -2.1431648189
 C         -4.8048259893       -0.1727356286        0.0380325205
 C         -5.7524764592       -0.4681094276        0.9989519510
 C         -6.2388148989        0.5533243531        1.7980900801
 C         -5.7647310289        1.8456684429        1.6297075488
 C         -4.8137042790        2.1254050520        0.6609290584
 C         -4.3259651093        1.1083636112       -0.1448056507
 H         -3.5905343894        1.2894997104       -0.9108624711
 H         -4.4479408290        3.1313042518        0.5290317074
 H         -6.1403536587        2.6406356335        2.2543295282
 H         -6.9824155988        0.3401556839        2.5488839405
 H         -6.1020944792       -1.4837768475        1.0893904720
 H         -3.3658637994       -2.9032369181        0.6511963528
 H         -2.1364874790       -2.4016278965        2.5697762121
 H         -0.3958038787       -1.0069889956        3.6270168405
 H          0.7310204612        0.7627701131        2.3267212086
 C          0.3796066708        1.4579058508       -0.2102988420
 H          0.2540214209        2.4054458513        0.3332703572
 C         -0.0809398995        1.6533486195       -1.6388937620
 C         -1.2465414095        2.5457383493       -1.9373817526
 C          0.1420850605        2.9807413689       -2.2964957033
 H          0.4271078103        2.9985384479       -3.3377457334
 H          0.6053460107        3.7559675894       -1.7033030641
 H         -1.9198569396        2.2643552086       -2.7338885623
 H         -1.7228193593        3.0381171301       -1.1027559730
 H          0.0555117603        0.7693619189       -2.2514652113
 O          1.6178664404       -0.9438207403       -1.2216066200
