  62
        -98.94023449
 C         -1.7959991124       -1.0640050173       -0.2365924236
 C         -3.1446517367       -1.3669092350        0.0581275026
 C         -4.1441737855       -0.3601414743       -0.3398906077
 C         -3.7299572105        0.7633269539       -0.9515971066
 C         -4.5704786509        1.9320604839       -1.3864323200
 C         -4.6131820655        3.0100371715       -0.2897639196
 C         -5.7168608804        2.8270052394        0.7512351416
 H         -5.5560216437        3.5754930545        1.5305421708
 H         -6.6839900075        3.0376238446        0.2899178183
 C         -5.7778936813        1.4436049856        1.4039209443
 H         -4.7684345283        1.1056483085        1.6450786421
 H         -6.3195894235        1.5415386629        2.3467523971
 C         -6.4846095071        0.3952071231        0.5319018205
 H         -7.2557295279       -0.1053975438        1.1212470091
 H         -7.0000188253        0.8995122822       -0.2852576703
 C         -5.5756284881       -0.7065058675       -0.0320960328
 H         -6.0353168412       -1.1206299335       -0.9359125639
 H         -5.5117838148       -1.5286702852        0.6878518871
 H         -3.6387578075        3.0231425176        0.2051199710
 H         -4.7531557923        3.9845165580       -0.7619319709
 H         -5.5703540760        1.6080128471       -1.6591192598
 H         -4.0843911335        2.3526551306       -2.2691615664
 O         -2.4181576348        1.0143922371       -1.2179066974
 C         -1.4217990767        0.1176761782       -0.8739168399
 O         -0.2715471333        0.4819920187       -1.1807035670
 O         -3.4989818421       -2.4284282287        0.6394018542
 C         -0.7165821262       -2.0639663565        0.1341883503
 C          0.3275801674       -1.4098587211        1.0036816416
 C         -0.0817059818       -0.7269394558        2.1472818432
 C          0.8389132585       -0.1120795338        2.9724115397
 C          2.1896804123       -0.1580958318        2.6716402388
 C          2.6099877192       -0.8426713104        1.5388964961
 C          1.6821091455       -1.4734354964        0.7193023037
 H          2.0400644083       -1.9936021256       -0.1526346606
 N          3.9782063156       -0.9348394186        1.2222885665
 S          4.5340910870       -0.4526190159       -0.2815036176
 O          3.8922367214       -1.2218513340       -1.3147636504
 O          5.9729529788       -0.5770454715       -0.1929839430
 C          4.0993114765        1.2736583139       -0.4000243361
 C          2.7956386155        1.6321136010       -0.6785401098
 C          2.4703574609        2.9799899113       -0.7083006998
 C          3.4412197988        3.9380465711       -0.4624705194
 C          4.7461171025        3.5593842789       -0.1835307369
 C          5.0787521022        2.2155220431       -0.1467401980
 H          6.0799182287        1.8742650951        0.0619888534
 H          5.5012545686        4.3052587070        0.0059156401
 H          3.1787463337        4.9840324880       -0.4896802601
 H          1.4515342854        3.2601123273       -0.9248504490
 H          2.0452155527        0.8813808603       -0.8705626659
 H          4.5861030501       -0.5575228381        1.9361191059
 H          2.9113898221        0.3272041296        3.3111779534
 H          0.5042798580        0.4134942157        3.8540475494
 H         -1.1377226529       -0.6850959958        2.3778204631
 H         -1.2248154831       -2.8377110881        0.7289349594
 C         -0.1505879579       -2.7085733281       -1.1136532896
 C          0.4173910727       -4.0939848344       -1.0552288666
 C         -0.8910784962       -3.8485363828       -1.7431144465
 H         -0.9283591452       -3.9072390134       -2.8206368601
 H         -1.7964636725       -4.1798418881       -1.2556511501
 H          1.2838381029       -4.3186693722       -1.6592167938
 H          0.4019639123       -4.6004507734       -0.1019182137
 H          0.3225829061       -1.9943201400       -1.7795277916
