  62
        -98.94442319
 C          1.9042531855       -0.8706384470       -0.3748789826
 C          2.1871250721        0.3260883171        0.3269052488
 C          3.4781817132        0.9622596722        0.0208372417
 C          4.2825474178        0.4233716988       -0.9123552852
 C          5.6373023391        0.9467169596       -1.2895071229
 C          6.7411740101        0.2916764532       -0.4474457012
 C          6.4595599973        0.3012081358        1.0550315381
 H          5.5949200828       -0.3342193403        1.2595789124
 H          7.3189621872       -0.1565091383        1.5496846673
 C          6.2132300956        1.6964252685        1.6458169867
 H          6.5930657048        2.4594164743        0.9653290102
 H          6.7747703453        1.7859248410        2.5781816631
 C          4.7501057854        1.9961696135        1.9770473574
 H          4.3387379212        1.1852313288        2.5833116548
 H          4.7188099209        2.9058189860        2.5828543162
 C          3.8245389844        2.2164842695        0.7737521851
 H          2.8771988060        2.6122689668        1.1514428125
 H          4.2620856248        2.9595304108        0.1038292325
 H          7.6807047812        0.8102522630       -0.6470023795
 H          6.8513662073       -0.7466672171       -0.7686266964
 H          5.8120161812        0.7185468607       -2.3423806894
 H          5.6552927290        2.0265474738       -1.1549557755
 O          3.9627881768       -0.7041720000       -1.5953339864
 C          2.7853555776       -1.3812442195       -1.3354310894
 O          2.6336621011       -2.4165248346       -2.0137267837
 H         -0.5372804224        0.7133199200        0.2345622699
 C         -1.0287963915        0.1532713194       -0.5471390445
 C         -0.5371901858       -1.0958519816       -0.8989929182
 C         -1.1724470752       -1.7975633161       -1.9163623203
 C         -2.2710854846       -1.2604372197       -2.5652310554
 C         -2.7589229439       -0.0155973455       -2.2109539351
 C         -2.1260238566        0.6948669535       -1.1992828731
 N         -2.6288914097        1.9568001084       -0.8177701309
 S         -4.2250261653        1.9548866583       -0.3022298680
 O         -5.0953042422        1.9250618049       -1.4510191713
 O         -4.3598948555        3.1039755759        0.5645560326
 C         -4.3815583257        0.4374096939        0.6221091881
 C         -3.7373892895        0.3520779773        1.8403627623
 C         -3.7751485911       -0.8449572455        2.5358625293
 C         -4.4453955754       -1.9335594476        1.9992371192
 C         -5.0881815774       -1.8311806088        0.7756254594
 C         -5.0557482162       -0.6355258277        0.0760727665
 H         -5.5411703067       -0.5131387705       -0.8780859778
 H         -5.6091621403       -2.6794598367        0.3620417548
 H         -4.4668625748       -2.8672321164        2.5389845754
 H         -3.2774890222       -0.9243898284        3.4892437766
 H         -3.2267142596        1.2191667455        2.2283569901
 H         -2.0445067137        2.4163089673       -0.1332317252
 H         -3.6173193150        0.4176631497       -2.6986234344
 H         -2.7531681118       -1.8170213962       -3.3542864555
 H         -0.7916212420       -2.7664060396       -2.2049230098
 C          0.6399484897       -1.6907688348       -0.1639638882
 H          0.8499600961       -2.6714949742       -0.6106293897
 C          0.2984751942       -1.8943646299        1.3005247827
 C         -0.6054338810       -3.0261286368        1.6815829104
 C          0.8521809283       -3.0815470686        2.0263454907
 H          1.1462057776       -2.9626732833        3.0584704504
 H          1.4841671622       -3.7584101929        1.4695236758
 H         -0.9634106184       -3.6669578604        0.8904012369
 H         -1.3173164261       -2.8695416092        2.4766505891
 H          0.2111321299       -0.9697240797        1.8548319135
 O          1.4187577587        0.8607102336        1.1721877340
