  62
        -98.94034073
 C         -2.4448146295       -1.0188768402       -0.0172397196
 C         -2.5324514197        0.3672134200        0.2565891193
 C         -3.8697824699        0.8596432401        0.6125672086
 C         -4.9012430498       -0.0007681300        0.6941502091
 C         -6.3145802299        0.3431140401        1.0797583485
 C         -7.1709622497        0.8624226091       -0.0830417621
 C         -6.8348281198        2.2774481887       -0.5548520932
 H         -7.6415636797        2.5942391881       -1.2187512837
 H         -6.8322616801        2.9536036194        0.3005563862
 C         -5.5022931397        2.3931490583       -1.3082115331
 H         -5.1784647095        1.4012806280       -1.6321000422
 H         -5.6443806596        2.9928057875       -2.2101541736
 C         -4.3742739299        3.0431388291       -0.5065417634
 H         -4.6308575201        4.0823512292       -0.2888263343
 H         -3.4709344998        3.0417340787       -1.1223379432
 C         -4.0463261001        2.3343349202        0.8143985673
 H         -3.1009767202        2.7320909607        1.1919668172
 H         -4.8271914403        2.5285802507        1.5494499170
 H         -7.0803025994        0.1675273484       -0.9209990915
 H         -8.2118588498        0.8502568392        0.2481385776
 H         -6.7659502598       -0.5778031796        1.4549665291
 H         -6.3057243902        1.0792484608        1.8839412179
 O         -4.7670852395       -1.3317952002        0.4495296802
 C         -3.5480729994       -1.8677453703        0.0681409009
 O         -3.5721205492       -3.0960634205       -0.1512658681
 H          1.5266318707       -0.9072406803       -0.7382316388
 C          1.2371990705       -1.0259565995        0.2919414812
 C         -0.0628582696       -1.3750466194        0.6240175412
 C         -0.3883808598       -1.5313145883        1.9687538813
 C          0.5556310699       -1.3129149574        2.9529952513
 C          1.8456663300       -0.9413468575        2.6184980113
 C          2.1888971602       -0.8061855485        1.2785094913
 N          3.5116849503       -0.4952610486        0.9190876213
 S          3.8438451704        0.4141399803       -0.4617014194
 O          3.1462511602        1.6799990402       -0.4212189506
 O          3.6223873208       -0.4033028507       -1.6274525788
 C          5.5953589203        0.6627099507       -0.2333039192
 C          6.4450327905       -0.3980171894       -0.4860383382
 C          7.8053931005       -0.2296554290       -0.2840023380
 C          8.2915108802        0.9897878714        0.1643631811
 C          7.4273279400        2.0457792915        0.4107032900
 C          6.0648949401        1.8834055811        0.2121506199
 H          5.3561882499        2.6776045312        0.3844592190
 H          7.8084515698        2.9933688718        0.7558713193
 H          9.3509168302        1.1185873717        0.3204194912
 H          8.4808969806       -1.0474221291       -0.4768110872
 H          6.0226181207       -1.3233536898       -0.8412029375
 H          4.0551525100       -0.1607666279        1.7035090311
 H          2.5813079298       -0.7633212567        3.3881603913
 H          0.2836468697       -1.4267988465        3.9917565814
 H         -1.3983295598       -1.8164367882        2.2320527813
 C         -1.1172954893       -1.6272322704       -0.4268966388
 H         -1.2848576691       -2.7135467505       -0.4856339279
 C         -0.7199541691       -1.1232492715       -1.7995391991
 C          0.0661944112       -1.9949459421       -2.7302600882
 C         -1.3778602787       -1.7099636826       -3.0108843588
 H         -1.6271074587       -1.0541637633       -3.8316089494
 H         -2.0959687287       -2.5008598025       -2.8478952483
 H          0.8188263913       -1.5340143826       -3.3527870384
 H          0.3286094813       -2.9837504118       -2.3850857873
 H         -0.5164893092       -0.0573727015       -1.8076102999
 O         -1.5486034098        1.1521161901        0.2135835288
