  62
        -98.94320236
 C          2.5083448964        1.0142611519       -0.1624614513
 C          3.6610147730        0.8924578194        0.6499779941
 C          4.7169295129        0.0089447416        0.1388622222
 C          4.5400871000       -0.6111019392       -1.0424407892
 C          5.5100646199       -1.5786342596       -1.6550974243
 C          5.1987797968       -3.0210902621       -1.2320110335
 C          5.0077404284       -3.1951293039        0.2746659311
 H          4.1093122683       -2.6562825524        0.5843723103
 H          4.8249746482       -4.2559731736        0.4589449712
 C          6.1976478905       -2.7264035770        1.1237383110
 H          6.4022754447       -3.4805292424        1.8866259626
 H          7.0890999627       -2.6464297442        0.5006049934
 C          5.9716437788       -1.4024920549        1.8562401613
 H          5.0300289517       -1.4459886803        2.4094665899
 H          6.7744776229       -1.2770495414        2.5876813039
 C          5.9557439850       -0.1465663781        0.9756163433
 H          5.9805063522        0.7236164440        1.6381989138
 H          6.8494628749       -0.1256162065        0.3486925210
 H          6.0117727336       -3.6639445635       -1.5742873147
 H          4.2806367740       -3.3378393640       -1.7320218054
 H          5.4311881765       -1.5028422749       -2.7408515566
 H          6.5211273575       -1.3107109796       -1.3545727733
 O          3.4239228408       -0.4603139380       -1.7999037070
 C          2.3764870767        0.3462260252       -1.3797179662
 O          1.4121584379        0.3864649116       -2.1666379723
 H         -1.1134243728        2.1987036397       -0.8683318086
 C         -1.0623701722        1.3622185868       -0.1890310518
 C          0.1188745830        1.0829421647        0.4778829072
 C          0.1473674533       -0.0023508943        1.3508117047
 C         -0.9708873796       -0.7908138992        1.5366424762
 C         -2.1446682518       -0.5176402472        0.8549928990
 C         -2.1879098624        0.5658635416       -0.0100586585
 N         -3.3698360900        0.8425776208       -0.7141922982
 S         -4.8322698331        0.8423157765        0.1031207329
 O         -5.7055664674        1.6808839655       -0.6886856114
 O         -4.6653702105        1.2183404019        1.4878537061
 C         -5.3909939759       -0.8445213760       -0.0091277564
 C         -5.7613491933       -1.5240118932        1.1347857990
 C         -6.2061235604       -2.8322355020        1.0231883101
 C         -6.2733374125       -3.4340169758       -0.2239773483
 C         -5.9003198420       -2.7368268486       -1.3635756417
 C         -5.4557617548       -1.4286095937       -1.2589355107
 H         -5.1584183230       -0.8539041736       -2.1202538338
 H         -5.9534192287       -3.2082243815       -2.3317748569
 H         -6.6185992375       -4.4523355205       -0.3087879561
 H         -6.4968509441       -3.3757747452        1.9078255145
 H         -5.6867276703       -1.0177716432        2.0841026077
 H         -3.3001899206        1.6243484113       -1.3487532127
 H         -3.0198398747       -1.1316214696        0.9910868690
 H         -0.9305646044       -1.6293690098        2.2153578624
 H          1.0649208946       -0.2179747373        1.8815150815
 C          1.3724360434        1.9048602638        0.3088465071
 H          1.6781236310        2.2654403094        1.3020431566
 C          1.2133671998        3.0966525662       -0.6107595692
 C          0.5769775811        4.3555951558       -0.1039905210
 C          2.0511576752        4.3150061287       -0.3701029316
 H          2.4370291833        4.8520851275       -1.2235383615
 H          2.7246523558        4.2956588067        0.4740947918
 H         -0.0489359313        4.9255801783       -0.7743370077
 H          0.2461158369        4.3690216650        0.9236606416
 H          1.0358898656        2.8105521873       -1.6415307015
 O          3.7982985538        1.4923473396        1.7502328025
