  62
        -98.94117674
 C         -2.1612339303       -1.0025357691       -0.0583485187
 C         -2.8098808904       -0.3992004479        1.0515035806
 C         -3.5458402503        0.8399521918        0.7839642392
 C         -3.5459643901        1.3575492705       -0.4574151413
 C         -4.2159624801        2.6344813001       -0.8869407727
 C         -5.7084422400        2.4831282898       -1.2120274727
 C         -6.6206445102        2.2812965011       -0.0014446227
 H         -6.4234185703        3.0618563018        0.7339215866
 H         -7.6472492901        2.4124760607       -0.3489645430
 C         -6.4959418003        0.9023835517        0.6614048887
 H         -5.9989613102        0.2126605010       -0.0246195705
 H         -7.4927037604        0.4997082320        0.8543753690
 C         -5.7426731805        0.9039031531        1.9915418088
 H         -6.3006350606        1.4860045638        2.7281413982
 H         -5.6810040506       -0.1259765266        2.3518193999
 C         -4.3160486605        1.4625107530        1.9091442885
 H         -4.3413912905        2.5463382128        1.7963539074
 H         -3.7968269607        1.2194315839        2.8393644788
 H         -6.0215124199        3.3931605793       -1.7289791937
 H         -5.8318156999        1.6480707791       -1.9054820219
 H         -3.6977696499        2.9679538392       -1.7888901429
 H         -4.0852780202        3.3919911709       -0.1133085734
 O         -2.8926434300        0.7659034595       -1.4909339006
 C         -2.1903054401       -0.4218033904       -1.3261237693
 O         -1.6581880899       -0.8296496614       -2.3777169288
 O         -2.7745976306       -0.8811042168        2.2144529911
 C         -1.3938566503       -2.2858164988        0.2195812227
 C          0.0469814696       -1.9407436286        0.4981614226
 C          0.6207900394       -2.1758980973        1.7411044229
 C          1.9279752594       -1.7963904271        1.9951765927
 C          2.6847252696       -1.1742036581        1.0185421222
 C          2.1167628898       -0.9299766393       -0.2254851181
 C          0.8118314598       -1.3184685896       -0.4805115179
 H          0.3696635800       -1.1207502705       -1.4465601482
 N          2.8771720799       -0.2765321204       -1.2209218886
 S          3.3040948899        1.3113128500       -0.8543579002
 O          2.3299699998        1.9311554009        0.0166490190
 O          3.5308012101        1.9570718187       -2.1290358308
 C          4.8597818798        1.1378060408       -0.0057518298
 C          4.9908039796        1.5910882921        1.2921670798
 C          6.2112702395        1.4430273927        1.9329631601
 C          7.2722007496        0.8472465320        1.2681036809
 C          7.1246437098        0.3997077107       -0.0365874487
 C          5.9080401499        0.5461790201       -0.6835917890
 H          5.7505039000        0.2171693291       -1.6971254887
 H          7.9522124498       -0.0622811598       -0.5503427281
 H          8.2199083895        0.7315047325        1.7698564312
 H          6.3276152393        1.7909134938        2.9467947898
 H          4.1350464295        2.0407784726        1.7699612992
 H          2.4206172801       -0.2929018913       -2.1234042487
 H          3.7017866395       -0.8737853079        1.2110861021
 H          2.3610997393       -1.9844453761        2.9655953030
 H          0.0280232693       -2.6397333565        2.5157445433
 H         -1.8295748505       -2.6704513179        1.1542547931
 C         -1.5785938802       -3.3467376499       -0.8583157262
 C         -0.4343231401       -4.0312816706       -1.5418193554
 C         -1.2646724303       -4.7807085796       -0.5472604747
 H         -1.9367112102       -5.5478215699       -0.9008271141
 H         -0.8208200004       -4.9901984686        0.4144054355
 H         -0.5450813299       -4.2613191517       -2.5908247451
 H          0.5704477899       -3.7570364804       -1.2605071755
 H         -2.4553888201       -3.1658055105       -1.4702250665
