  62
        -98.93789296
 C         -1.2741794226       -1.3754404065        0.2819906167
 C         -1.8415411852       -0.4455661981        1.1864736283
 C         -3.0983394270        0.2064847585        0.7785189330
 C         -3.5986154342       -0.0421043710       -0.4459910281
 C         -4.8705576440        0.4235708475       -1.1242859694
 C         -5.7236455572        1.5278261040       -0.5072861220
 C         -5.0885238621        2.9181606261       -0.5491817064
 H         -5.0931976764        3.2689414251       -1.5843098607
 H         -5.7099814113        3.5996259101        0.0355776962
 C         -3.6494315152        3.0024633986       -0.0462873013
 H         -3.3057712888        4.0322935273       -0.1788443041
 H         -3.0031660553        2.3738715134       -0.6631799558
 C         -3.4450290173        2.6332368292        1.4210360592
 H         -2.4052133993        2.8615722355        1.6722906429
 H         -4.0856863135        3.2553658244        2.0496073282
 C         -3.6974737577        1.1586161832        1.7739227377
 H         -3.2046126680        0.9533798927        2.7289242712
 H         -4.7591035535        0.9629992544        1.9052540214
 H         -6.6482701543        1.5708936283       -1.0891457072
 H         -6.0033756316        1.2621153056        0.5079349747
 H         -5.4894778540       -0.4742303651       -1.2318519425
 H         -4.5795711774        0.7182534812       -2.1378275232
 O         -2.9658424185       -0.8772536981       -1.3208815156
 C         -1.7959536840       -1.5498549419       -0.9987831046
 O         -1.3455678018       -2.2464394754       -1.9269195262
 O         -1.3227204583       -0.1760514862        2.3034610573
 C          0.0045515871       -2.0779177884        0.6981054664
 C          1.0672033542       -1.8937817395       -0.3557791146
 C          1.8053022013       -2.9286812971       -0.9139765214
 C          2.7813502407       -2.6585235563       -1.8580551250
 C          3.0616627538       -1.3603777022       -2.2430445330
 C          2.3259198092       -0.3174423031       -1.6913151886
 C          1.3358630301       -0.5937082686       -0.7641621655
 H          0.7454002378        0.2191596207       -0.3686526462
 N          2.5771660651        1.0183701870       -2.0414959775
 S          2.4475537259        2.1983526201       -0.8639551367
 O          1.0637157186        2.5261256113       -0.6278709879
 O          3.2748804004        3.2821225173       -1.3510520784
 C          3.1898264430        1.4756423639        0.5892405835
 C          4.5458045185        1.2133816743        0.5453306959
 C          5.1491060038        0.6061309260        1.6338517831
 C          4.3884744130        0.2670245935        2.7428033922
 C          3.0308312495        0.5432563144        2.7750366588
 C          2.4221247515        1.1541086189        1.6895301760
 H          1.3657939468        1.3746116541        1.6868550905
 H          2.4337238515        0.2816155929        3.6342673728
 H          4.8551593687       -0.2131299608        3.5883111841
 H          6.2061009274        0.3954678814        1.6136847811
 H          5.1050931886        1.4997937885       -0.3304614959
 H          3.3798715141        1.1607957372       -2.6363290333
 H          3.8292815899       -1.1529579296       -2.9726534727
 H          3.3394252779       -3.4726360692       -2.2948496007
 H          1.6026260251       -3.9478178253       -0.6293766548
 H          0.3350421634       -1.5210334828        1.5920642243
 C         -0.1790392492       -3.5224871362        1.1378510618
 C         -1.5047144000       -4.0206039106        1.6288231069
 C         -0.9514512484       -4.5198912388        0.3294187623
 H         -0.5870509251       -5.5360093402        0.2869937051
 H         -1.4005649403       -4.1771449406       -0.5890347998
 H         -1.5201698904       -4.6901112489        2.4757971368
 H         -2.3398669556       -3.3354829899        1.5974123256
 H          0.6939136856       -3.8975147514        1.6631199965
