  62
        -98.94522265
 C         -1.6083033707       -0.2547305329       -0.5994664373
 C         -2.8851703394       -0.7460323721       -0.9676472768
 C         -3.9412615397       -0.6263265887        0.0454940837
 C         -3.6381457027       -0.1133556005        1.2518610895
 C         -4.6239500059        0.1062880198        2.3619173390
 C         -5.2365665028        1.5121448286        2.2903009694
 C         -5.7573736531        1.8892127212        0.9033383751
 H         -6.1937307778        2.8874016520        0.9805509299
 H         -4.9136849999        1.9593873591        0.2131302997
 C         -6.7997743207        0.9184408125        0.3311633009
 H         -7.2197256016        0.3106302144        1.1334182949
 H         -7.6190813451        1.4983826142       -0.0988228907
 C         -6.2736227643        0.0029418389       -0.7758327055
 H         -5.7694536939        0.6024487656       -1.5378701117
 H         -7.1303448635       -0.4800562008       -1.2532181805
 C         -5.3160996530       -1.1073988117       -0.3249775861
 H         -5.7636022133       -1.6676731370        0.4985387790
 H         -5.1772117098       -1.7895555067       -1.1688366356
 H         -6.0502577813        1.5709674669        3.0154787741
 H         -4.4717515993        2.2372019392        2.5781632622
 H         -5.4072519670       -0.6467319955        2.2998665096
 H         -4.1003762253       -0.0050367169        3.3130880437
 O         -2.3933491467        0.3130563123        1.5832740152
 C         -1.3489668987        0.2646966710        0.6694052556
 O         -0.2732685424        0.7149071133        1.1053703360
 H          2.1146275129       -0.0604874299       -0.7301602717
 C          1.7783746965       -1.0812923939       -0.7097152494
 C          0.5001509514       -1.3990138295       -1.1376863745
 C          0.0980805310       -2.7327271120       -1.1081422082
 C          0.9570289530       -3.7178793720       -0.6623843506
 C          2.2283709614       -3.3922906212       -0.2194780735
 C          2.6362484496       -2.0654749196       -0.2366575348
 N          3.9232956290       -1.6906291138        0.1925339771
 S          4.0363632139       -0.5151422634        1.3934916389
 O          5.3764023263       -0.6802595030        1.9206349430
 O          2.9645476446       -0.6417006557        2.3528277877
 C          3.9550675602        1.0345193232        0.5233648163
 C          2.8808540714        1.8811611767        0.7139435107
 C          2.8499766170        3.0806629284        0.0185590124
 C          3.8825794871        3.4086674923       -0.8466105128
 C          4.9545056716        2.5462444856       -1.0231485503
 C          4.9949779110        1.3471739863       -0.3305178428
 H          5.8107771080        0.6509511069       -0.4310883465
 H          5.7543778151        2.8045196676       -1.6981927587
 H          3.8485989855        4.3417284087       -1.3870965843
 H          2.0122057214        3.7469546002        0.1527561864
 H          2.0773250486        1.5774259407        1.3676584365
 H          4.5184720024       -2.4731831484        0.4279450881
 H          2.8976651072       -4.1599125632        0.1398036199
 H          0.6343091788       -4.7482694057       -0.6506293620
 H         -0.8999023419       -2.9836657337       -1.4404625117
 C         -0.4795676097       -0.3541154678       -1.6128231327
 H         -0.9505651660       -0.7285600807       -2.5329791919
 C          0.1495142138        0.9934090162       -1.8935973555
 C          1.0104772632        1.1718609185       -3.1073400802
 C         -0.3428788865        1.8122741018       -3.0471986270
 H         -0.4032332482        2.8835318443       -2.9285913449
 H         -1.1332980834        1.3958077923       -3.6544960820
 H          1.8835023201        1.8018660688       -3.0286465734
 H          1.1386170252        0.3184608599       -3.7556837612
 H          0.4303651402        1.5251409314       -0.9928161906
 O         -3.1294950368       -1.2603551820       -2.0921577103
