  62
        -98.94416101
 C         -2.1992085857       -0.7724533146       -0.0606814742
 C         -2.9050586858       -0.1116714532        0.9721053050
 C         -3.6894120127        1.0589017121        0.5631821813
 C         -3.6655918118        1.4622532416       -0.7204802790
 C         -4.3911550687        2.6523172259       -1.2875341188
 C         -5.8538724853        2.3721803951       -1.6587459709
 C         -6.8074624829        2.2152744584       -0.4736536772
 H         -6.6986984134        3.0701284348        0.1946036841
 H         -7.8228166882        2.2422140913       -0.8740269532
 C         -6.6244930250        0.9131988091        0.3186147502
 H         -7.6009393904        0.4621663957        0.5088879701
 H         -6.0535570026        0.1993676237       -0.2796351829
 C         -5.9351269129        1.0860282985        1.6720980292
 H         -6.5627147795        1.6922900459        2.3290808990
 H         -5.8246938017        0.0992029018        2.1290065564
 C         -4.5446809569        1.7302347056        1.5950567170
 H         -4.6345876276        2.7953582779        1.3820990582
 H         -4.0549047653        1.6072530052        2.5644641281
 H         -5.8906338916        1.4728462081       -2.2776902185
 H         -6.2009343288        3.2096994136       -2.2682007185
 H         -4.3462716479        3.4810427932       -0.5802512999
 H         -3.8546742558        2.9391584177       -2.1945097988
 O         -2.9370355956        0.8255481614       -1.6754922360
 C         -2.2017328597       -0.3136727029       -1.3782990993
 O         -1.6028235404       -0.8058754648       -2.3520241177
 H          0.0595637352        0.1437720754        0.8640561320
 C          0.6624139948       -0.5960260045        0.3504667578
 C          0.0713343748       -1.7895681220       -0.0465643523
 C          0.8610948394       -2.7352584907       -0.6867076117
 C          2.1975765820       -2.4772476116       -0.9395399600
 C          2.7750865396       -1.2799136487       -0.5608094791
 C          1.9987212227       -0.3321190007        0.0937146697
 N          2.5736967649        0.8929408466        0.4760690013
 S          4.0015698078        0.8581834177        1.3597922420
 O          4.1070757551       -0.3492386607        2.1457870623
 O          4.0227512446        2.1060604903        2.0916275759
 C          5.2767449113        0.8928042139        0.1179270195
 C          6.2290921459       -0.1067401718        0.0797870654
 C          7.2170637483       -0.0539063184       -0.8912517988
 C          7.2354199048        0.9922244553       -1.8009145728
 C          6.2731192815        1.9897485538       -1.7472664258
 C          5.2832737204        1.9432754295       -0.7787027923
 H          4.5199061967        2.6994541904       -0.7006481748
 H          6.2905533323        2.8017023807       -2.4563259942
 H          8.0042802619        1.0310021041       -2.5563158746
 H          7.9661712459       -0.8280677152       -0.9345975538
 H          6.1720476800       -0.9026151970        0.8051722670
 H          1.9162464805        1.5362326437        0.8925311516
 H          3.8130312151       -1.0729205417       -0.7635872941
 H          2.7971740937       -3.2192099177       -1.4442765696
 H          0.4298309466       -3.6742973081       -0.9919976719
 C         -1.3867807264       -2.0085437029        0.2763045657
 H         -1.4758349053       -2.1278560358        1.3671984151
 C         -1.9813571225       -3.2286751352       -0.3957498003
 C         -1.8599456516       -4.5797061832        0.2413690381
 C         -3.1832969555       -3.8773766802        0.2206153122
 H         -3.9588468456       -4.2519841305       -0.4304480317
 H         -3.5549054798       -3.4558900341        1.1435021063
 H         -1.7291608242       -5.4408751499       -0.3963723437
 H         -1.3355667190       -4.6433932037        1.1829245415
 H         -1.9468183064       -3.1644698278       -1.4775065739
 O         -2.8731702499       -0.4766847783        2.1792817652
