  62
        -98.93994755
 C          2.7719000903        0.0680346268        0.4142792555
 C          2.8124146022        1.0266885816       -0.6324601385
 C          2.2713200110        2.3531292407       -0.3299041331
 C          1.7948581193        2.6069621871        0.9018532186
 C          1.1505920810        3.8880458496        1.3558973652
 C         -0.3389568774        3.9718412968        0.9920292799
 C         -0.6314674180        4.2568876130       -0.4822555793
 H         -1.6819615164        4.5471888476       -0.5479809478
 H         -0.0356012655        5.1079881963       -0.8149814676
 C         -0.3937045438        3.0589046824       -1.4125885395
 H         -0.3717679897        2.1410206105       -0.8197648902
 H         -1.2314832561        2.9681542761       -2.1087393703
 C          0.8781661529        3.1479567447       -2.2568514075
 H          0.7876442794        3.9725987579       -2.9682524453
 H          0.9754151704        2.2190067468       -2.8249197784
 C          2.1681272578        3.3432967650       -1.4505174750
 H          3.0167131200        3.1760451868       -2.1188460330
 H          2.2214052790        4.3606047241       -1.0632855973
 H         -0.8183939752        3.0318290576        1.2783052356
 H         -0.7783950833        4.7721286860        1.5925581645
 H          1.2443523543        3.9171127327        2.4436419068
 H          1.6830338564        4.7422860917        0.9361097894
 O          1.8575642355        1.6959505972        1.9055466304
 C          2.2871549555        0.3900085272        1.6825707642
 O          2.2091147779       -0.3304943370        2.6958441402
 O          3.2722267902        0.7699343168       -1.7784129590
 C          3.1163037010       -1.3525031237       -0.0025020892
 C          1.9698852110       -1.8823461629       -0.8333759355
 C          2.1796265016       -2.6600489871       -1.9648102823
 C          1.1050008430       -3.1017255291       -2.7181395182
 C         -0.1895062347       -2.7567515376       -2.3758727877
 C         -0.4086684553       -1.9593033904       -1.2559552670
 C          0.6673623069       -1.5581997626       -0.4816267353
 H          0.4879367576       -0.9633041713        0.4009552800
 N         -1.7005813906       -1.5129043268       -0.9392936083
 S         -2.0570881233       -0.8215222836        0.5526729378
 O         -1.3656097079        0.4356286818        0.6716236998
 O         -1.8530290548       -1.7860929581        1.6120817828
 C         -3.7984279427       -0.5213259067        0.3246068038
 C         -4.7202416060       -1.4358460847        0.7972119748
 C         -6.0694066341       -1.1979922478        0.5855656974
 C         -6.4709858451       -0.0569107024       -0.0924808973
 C         -5.5339599627        0.8534673826       -0.5586935124
 C         -4.1838686365        0.6217445789       -0.3496813748
 H         -3.4184572433        1.3032219860       -0.6837622967
 H         -5.8495324338        1.7416084959       -1.0818983708
 H         -7.5212498061        0.1259984118       -0.2558226562
 H         -6.8002989965       -1.9013033389        0.9507438236
 H         -4.3616118137       -2.3027988497        1.3285293458
 H         -2.4406917838       -2.1097450600       -1.2791758849
 H         -1.0238030672       -3.0827424797       -2.9772949996
 H          1.2788064711       -3.7113541673       -3.5918497635
 H          3.1890379355       -2.9006453413       -2.2642241311
 H          3.9904983928       -1.2698068769       -0.6695945390
 C          3.4939536223       -2.2833011360        1.1361701278
 C          2.5238044251       -3.2428359800        1.7504135408
 C          3.6447316590       -3.7573621435        0.9006115729
 H          4.4611299147       -4.2719745126        1.3839377198
 H          3.3932747823       -4.1399943295       -0.0765304704
 H          2.5655562199       -3.3798236765        2.8200318231
 H          1.5185538063       -3.2690722142        1.3562839688
 H          4.2031257444       -1.8226985337        1.8154010731
