  62
        -98.94413665
 C          1.7498544531        1.2120010592        0.4505264140
 C          1.8358714555        0.2964521690       -0.6258756418
 C          3.1943298458        0.0103665170       -1.1122942510
 C          4.2433369172        0.6400173172       -0.5522198480
 C          5.6801269403        0.4090418382       -0.9193236710
 C          6.3086066719       -0.6826554843       -0.0422247271
 C          5.4694294394       -1.9569644194        0.0523163585
 H          6.0246954154       -2.6675486982        0.6684822644
 H          4.5383917457       -1.7345286499        0.5789861388
 C          5.1409911699       -2.6023200052       -1.3012291289
 H          5.8223735402       -2.2274626961       -2.0658307060
 H          5.3021733442       -3.6796186912       -1.2234470574
 C          3.6974150239       -2.4022113415       -1.7675496113
 H          3.0089277532       -2.6894392939       -0.9680562334
 H          3.5160429113       -3.0758454968       -2.6095703349
 C          3.3334108321       -0.9852290161       -2.2292290810
 H          4.0598763733       -0.6406463760       -2.9680996274
 H          2.3514853326       -1.0364267384       -2.7090375289
 H          7.2946008530       -0.9234358142       -0.4436427143
 H          6.4401320205       -0.2840001710        0.9663352744
 H          5.7411586210        0.1270220980       -1.9684987462
 H          6.2268913495        1.3415853166       -0.7701103448
 O          4.1163313448        1.5367667141        0.4589162396
 C          2.8746938059        1.8282480337        0.9990609180
 O          2.9022379533        2.6387383793        1.9471195297
 H         -2.1216046557        0.5168613746        0.6024696205
 C         -1.5327437951       -0.0884425821        1.2687636457
 C         -0.2427158249        0.2933497704        1.5989520456
 C          0.4809466854       -0.5032330028        2.4835069695
 C         -0.0716018919       -1.6522203521        3.0139992821
 C         -1.3544294052       -2.0392821327        2.6644235027
 C         -2.0851264595       -1.2541292290        1.7836034826
 N         -3.4008523601       -1.5980145547        1.4174650681
 S         -3.7292545981       -1.8010208985       -0.2208470382
 O         -4.9765125988       -2.5373534025       -0.2430588813
 O         -2.6206671969       -2.4204159338       -0.9083901291
 C         -4.0236339879       -0.1602855307       -0.8416161576
 C         -3.1875027063        0.3668800111       -1.8060565905
 C         -3.4485887003        1.6389713024       -2.2912624884
 C         -4.5321116375        2.3557175679       -1.8055581592
 C         -5.3617253232        1.8101472456       -0.8369452574
 C         -5.1092067936        0.5378718975       -0.3499266231
 H         -5.7324817691        0.0730141996        0.3954513803
 H         -6.2014005967        2.3724879263       -0.4616334617
 H         -4.7288408246        3.3463784020       -2.1849519785
 H         -2.8010129563        2.0659990242       -3.0407532585
 H         -2.3433394814       -0.2168520920       -2.1399324806
 H         -3.7722042426       -2.3853516547        1.9316955204
 H         -1.7843792359       -2.9431772228        3.0697742280
 H          0.5022381768       -2.2581935825        3.6993643631
 H          1.4863340287       -0.2051569242        2.7503424759
 C          0.3985743753        1.5477152790        1.0562461324
 H          0.6066748746        2.2148399057        1.9056080552
 C         -0.4641455163        2.2867523830        0.0552618371
 C         -1.5355279590        3.2195734412        0.5319136569
 C         -0.2916808918        3.7664372705       -0.1000135687
 H         -0.3576798164        4.1912141169       -1.0901435726
 H          0.4380551141        4.2495405963        0.5336720873
 H         -1.6540865657        3.3375829007        1.5982773405
 H         -2.4593279211        3.2689957362       -0.0245152758
 H         -0.6498671350        1.7081964073       -0.8421214801
 O          0.8341603114       -0.2511892275       -1.1564650040
