  62
        -98.94491069
 C         -1.9503185651       -0.8541647208        0.0748199944
 C         -2.2650859068        0.1055020477        1.0641141084
 C         -2.3933066422        1.4914897816        0.5980437192
 C         -2.1720238601        1.7706950806       -0.6996807842
 C         -2.3055686756        3.1325980903       -1.3168445652
 C         -3.7255544166        3.3663543860       -1.8518735846
 C         -4.8270811433        3.0203995545       -0.8499328198
 H         -5.7828760141        3.2503695980       -1.3254139402
 H         -4.8107725356        1.9445312200       -0.6617460285
 C         -4.7270905743        3.7691168201        0.4863348461
 H         -5.7197635225        4.1327838141        0.7594842161
 H         -4.0808956347        4.6404457413        0.3751733025
 C         -4.2288880816        2.9166302168        1.6547999875
 H         -4.8146141758        1.9958611179        1.7128219370
 H         -4.4000576882        3.4731400367        2.5800293990
 C         -2.7425757482        2.5379278304        1.6188797594
 H         -2.1345663805        3.4336959083        1.4739481193
 H         -2.4836553972        2.1045639653        2.5896953456
 H         -3.8647459654        2.7481274914       -2.7416058467
 H         -3.8144373801        4.4133812456       -2.1470220522
 H         -1.5949145963        3.2026376658       -2.1423014858
 H         -2.0554954430        3.8867019533       -0.5728441804
 O         -1.8493606646        0.8252930508       -1.6186644414
 C         -1.7209127553       -0.5058662401       -1.2563969065
 O         -1.4199679435       -1.2688052228       -2.1949328250
 O         -2.4308034325       -0.1851506312        2.2813839215
 C         -1.7631146460       -2.3033794319        0.4843483660
 C         -0.3604881616       -2.7464544906        0.1462895517
 C         -0.0615871675       -3.9780360471       -0.4217058808
 C          1.2463604085       -4.3026780045       -0.7386712541
 C          2.2754101830       -3.4089868306       -0.5088400571
 C          1.9886731787       -2.1817230382        0.0795448460
 C          0.6834090505       -1.8712898633        0.4194234403
 H          0.4734329647       -0.9131451589        0.8739244334
 N          3.0112723265       -1.2553436344        0.3541796070
 S          2.6491053232        0.3897550995        0.2239471188
 O          2.0251348220        0.8259230945        1.4491969148
 O          1.9249868603        0.6569083603       -0.9986438736
 C          4.2993588329        1.0605055677        0.1279949770
 C          4.8291893575        1.3912884179       -1.1047156878
 C          6.1260008735        1.8771498811       -1.1686373248
 C          6.8677635678        2.0194406139       -0.0056245421
 C          6.3221194394        1.6837334741        1.2247219947
 C          5.0258593250        1.1988644889        1.2958036538
 H          4.5550799508        0.9331663221        2.2278608439
 H          6.9007036276        1.7981125844        2.1270627173
 H          7.8766621726        2.3969206974       -0.0583975036
 H          6.5510062924        2.1418568454       -2.1233800177
 H          4.2111464908        1.2698163903       -1.9800968829
 H          3.8743888846       -1.4779599716       -0.1238334889
 H          3.2908679502       -3.6544846106       -0.7801700920
 H          1.4643076756       -5.2595939800       -1.1881901384
 H         -0.8540708311       -4.6781073054       -0.6297913668
 H         -1.8751752808       -2.3160249262        1.5794844397
 C         -2.8384142077       -3.1765609851       -0.1280791435
 C         -3.3119830549       -4.4081636037        0.5828827907
 C         -4.1962259769       -3.2012174222        0.5053434275
 H         -5.0638538397       -3.2341385868       -0.1363133679
 H         -4.3349963495       -2.6079204913        1.3975188091
 H         -3.5770025570       -5.2732734219       -0.0059655439
 H         -2.8578312517       -4.6413664792        1.5339991412
 H         -2.7900428101       -3.1922432597       -1.2112787064
