  62
        -98.93571064
 C          1.9391599804        0.1729899102        0.6283940600
 C          2.9455828903       -0.8127054397        0.7599879909
 C          4.3390904003       -0.3998667401        0.5045452302
 C          4.5809237704        0.8828328496        0.1762327488
 C          5.8977710503        1.5311265591       -0.1604098821
 C          6.3928341901        1.1730871175       -1.5704164518
 C          6.2728628700       -0.3037165829       -1.9366671801
 H          5.2282599300       -0.6099553027       -1.8562296396
 H          6.5618827898       -0.4101729141       -2.9856377701
 C          7.1436905601       -1.2505007820       -1.1141368192
 H          7.0378036299       -2.2476465525       -1.5491466581
 H          8.1901600801       -0.9543226222       -1.2151835997
 C          6.8062777503       -1.3468031203        0.3756269110
 H          7.1981375604       -0.4947740798        0.9247379800
 H          7.3182748203       -2.2301374899        0.7685057519
 C          5.3231954603       -1.5309802599        0.6814106214
 H          5.2189712004       -1.8487992788        1.7260316217
 H          4.9345578402       -2.3672799506        0.0888466923
 H          7.4333192401        1.4896356874       -1.6607927123
 H          5.8025285101        1.7441388167       -2.2912359123
 H          5.7355842004        2.6102701392       -0.1127451333
 H          6.6425423604        1.2754511799        0.5873606681
 O          3.5811405104        1.8024448695        0.0669213479
 C          2.2507179704        1.4898219998        0.2862984384
 O          1.4755856804        2.4535235697        0.1398045275
 O          2.6942837503       -2.0067796093        1.0832563523
 C          0.5111895704       -0.2394025194        0.9150631306
 C         -0.3534815098       -0.3950598307       -0.3168337191
 C          0.0178848201        0.0703423879       -1.5714693097
 C         -0.8180389301       -0.1002178933       -2.6614992294
 C         -2.0426934401       -0.7264134431       -2.5226486685
 C         -2.4246284400       -1.2025147117       -1.2733037979
 C         -1.5760003098       -1.0433238305       -0.1874899782
 H         -1.8828808597       -1.4370476795        0.7678982723
 N         -3.6537203300       -1.8614333114       -1.1018334070
 S         -4.6786066398       -1.4241612100        0.1472984127
 O         -4.0705388696       -1.7362680486        1.4141159329
 O         -5.9237074198       -2.0946815203       -0.1508969664
 C         -4.8818496297        0.3378998698       -0.0396863793
 C         -5.9553842498        0.8036500091       -0.7740177096
 C         -6.0859433797        2.1670594088       -0.9816391411
 C         -5.1372405296        3.0369890194       -0.4654458222
 C         -4.0633311095        2.5532922301        0.2659402182
 C         -3.9311397696        1.1909170503        0.4848937397
 H         -3.1088150795        0.7865208509        1.0513006300
 H         -3.3220158495        3.2282467305        0.6638255673
 H         -5.2342775696        4.0982739792       -0.6318923234
 H         -6.9220306198        2.5468266682       -1.5465181114
 H         -6.6705331499        0.0919815387       -1.1538516887
 H         -4.1789573501       -1.9809019324       -1.9562170068
 H         -2.6930885302       -0.8558074040       -3.3742002983
 H         -0.5114394402        0.2659905556       -3.6295974598
 H          0.9662656201        0.5711381277       -1.6937662504
 H          0.5852069904       -1.2311354589        1.3855116717
 C         -0.1455410794        0.7103821517        1.9044863297
 C         -1.0895138293        0.2061318729        2.9529426303
 C          0.2828320408        0.6665576833        3.3402649296
 H          0.3884310809        1.5967622939        3.8776593586
 H          1.0118358608       -0.0818068064        3.6164920404
 H         -1.9312296292        0.8236195333        3.2303197698
 H         -1.3001049993       -0.8523974970        2.9921286615
 H         -0.3372494994        1.6875487413        1.4773348086
