  62
        -98.93910098
 C         -1.9795040654       -1.6662033186       -0.1522378466
 C         -2.7121229193       -1.1268437500        0.9393747764
 C         -3.8598937438       -0.2792017176        0.6087268324
 C         -4.1818101999       -0.0778266454       -0.6813776989
 C         -5.3254501135        0.7578253709       -1.1894092662
 C         -5.0031965264        2.2551573871       -1.2889029170
 C         -4.9060663961        2.9902119663        0.0487278938
 H         -4.8968890528        4.0590888481       -0.1738230540
 H         -5.8005333913        2.7875950085        0.6385910461
 C         -3.6558160688        2.6478377457        0.8717139059
 H         -3.2040064945        3.5686101745        1.2479449304
 H         -2.9122603159        2.1717822007        0.2272817846
 C         -3.9176467101        1.7451513291        2.0777941721
 H         -4.5498035587        2.2702889853        2.7973364603
 H         -2.9595150667        1.5333969152        2.5595785957
 C         -4.5790894962        0.4047943250        1.7314718741
 H         -4.5192448216       -0.2439432697        2.6086437460
 H         -5.6277749160        0.5559110850        1.4765747863
 H         -5.7963081116        2.7209940161       -1.8785102254
 H         -4.0665696349        2.3751360499       -1.8391403971
 H         -6.1972687102        0.6132108934       -0.5506770496
 H         -5.5607170230        0.3887681773       -2.1900186586
 O         -3.4901295589       -0.6505279879       -1.6988000638
 C         -2.3583459595       -1.4366516766       -1.4744853771
 O         -1.8446393125       -1.8564164648       -2.5266708115
 O         -2.4116613964       -1.3548208128        2.1414620029
 C         -0.7485108439       -2.4642385861        0.2485040131
 C          0.2216410946       -1.5507027449        0.9580968804
 C          0.8693573339       -1.9613236205        2.1180205350
 C          1.7508077301       -1.1200003982        2.7718671709
 C          2.0210236421        0.1389850565        2.2662273866
 C          1.3829284350        0.5574968111        1.1051697908
 C          0.4830654787       -0.2808483534        0.4635089724
 H         -0.0166016391        0.0675655118       -0.4294280623
 N          1.6504074229        1.8258697597        0.5409330586
 S          2.5174571098        1.8014938498       -0.8936884146
 O          2.7624398798        3.1873957478       -1.2242447127
 O          1.8105521137        1.0139305657       -1.8690342324
 C          4.0543602116        1.0089188096       -0.4503359595
 C          4.1020695448       -0.3696536052       -0.3868440307
 C          5.2723613722       -0.9797069489        0.0367993662
 C          6.3673018053       -0.2057969587        0.3896510276
 C          6.3040480246        1.1777614657        0.3192457588
 C          5.1354268688        1.7938617171       -0.0988904561
 H          5.0412199004        2.8653037195       -0.1729585722
 H          7.1580668486        1.7770677002        0.5907759853
 H          7.2753808811       -0.6848592564        0.7199260378
 H          5.3207437937       -2.0553370289        0.0899175030
 H          3.2346990601       -0.9406935623       -0.6756899708
 H          2.0973677630        2.4654573191        1.1843738153
 H          2.7111289925        0.7994537180        2.7697493320
 H          2.2350301065       -1.4475415565        3.6787954628
 H          0.6576292186       -2.9416742231        2.5183180238
 H         -1.0940907722       -3.2015422966        0.9932821173
 C         -0.0821301963       -3.2420399118       -0.8734440183
 C          0.9746049254       -2.6545243096       -1.7546018526
 C          1.3413990209       -3.7008501511       -0.7474182088
 H          1.5939787465       -4.6875169148       -1.1048041184
 H          1.8950878427       -3.3886140950        0.1254597067
 H          0.9503894115       -2.9187326169       -2.8009398078
 H          1.2664463131       -1.6278467216       -1.5907020022
 H         -0.7746807028       -3.9228257060       -1.3560187119
