  62
        -98.93850963
 C          1.7945241482        0.9392288701        0.8233571768
 C          1.9995824784       -0.4614181439        0.9264137878
 C          3.3745999771       -0.9384974306        0.7371844076
 C          4.3490055499       -0.0440825203        0.4921313409
 C          5.7830765979       -0.3915809427        0.2184241661
 C          6.0304540010       -0.5823562281       -1.2847026188
 C          5.0178508716       -1.5026261590       -1.9666469851
 H          4.0334048733       -1.0293799332       -1.9431840694
 H          5.3092843972       -1.5849050536       -3.0160433850
 C          4.9195247739       -2.9057595373       -1.3516713949
 H          4.9080787923       -3.6414949770       -2.1585930389
 H          5.8023566142       -3.1062836698       -0.7434866138
 C          3.6620945326       -3.1434351341       -0.5134263211
 H          2.7783160076       -2.8543799883       -1.0877510079
 H          3.5859397444       -4.2150801570       -0.3112734573
 C          3.6158685539       -2.4183180427        0.8372611038
 H          4.5315002139       -2.6221000645        1.3962374786
 H          2.7699188933       -2.8209078583        1.4018650075
 H          5.9844856639        0.3955262915       -1.7696656419
 H          7.0372603744       -0.9815904031       -1.4206705981
 H          6.4106402751        0.4246018377        0.5802477157
 H          6.0400485023       -1.3011450889        0.7579600421
 O          4.1216794898        1.2903264965        0.4172774394
 C          2.8438203991        1.8217636827        0.5640649240
 O          2.8044162776        3.0594576371        0.4449660761
 O          1.0694970886       -1.2750712918        1.1738493863
 C          0.3678633829        1.4216689252        1.0093426190
 C         -0.3570097756        1.4986901203       -0.3096495716
 C          0.1780224138        2.1854904885       -1.3951606143
 C         -0.5180704150        2.2535297890       -2.5881748228
 C         -1.7557811397        1.6483992999       -2.7195909652
 C         -2.2939373335        0.9497203791       -1.6446780497
 C         -1.5864834102        0.8733493562       -0.4525403454
 H         -2.0018604227        0.3238074850        0.3774334898
 N         -3.5256062158        0.2995835864       -1.7625796239
 S         -4.5082974086        0.0073117944       -0.4459465583
 O         -5.8003210242       -0.2862284017       -1.0273633260
 O         -4.4725383626        1.0970099463        0.5009819417
 C         -3.8407041232       -1.4752826679        0.2772243169
 C         -3.5737153049       -2.5453414663       -0.5533525743
 C         -3.0630150479       -3.7088102376       -0.0018719914
 C         -2.8325151623       -3.7839847562        1.3633116989
 C         -3.1109672723       -2.7029539966        2.1845376484
 C         -3.6203928468       -1.5355945722        1.6385177836
 H         -3.8405770841       -0.6682204032        2.2414295313
 H         -2.9272414501       -2.7618301021        3.2454227614
 H         -2.4296758240       -4.6887959913        1.7902844424
 H         -2.8421690682       -4.5517288581       -0.6368418574
 H         -3.7648958932       -2.4509126885       -1.6093592340
 H         -4.0373856571        0.4710333356       -2.6144417001
 H         -2.3001634088        1.7112458835       -3.6493509340
 H         -0.0962616001        2.7922378270       -3.4235030953
 H          1.1370207987        2.6701384661       -1.2892981909
 H         -0.1174533522        0.6271841505        1.5991321870
 C          0.2539551783        2.7070643023        1.8166267667
 C         -0.1782347958        4.0179879740        1.2395155760
 C         -1.1018002916        3.2613558120        2.1437966670
 H         -1.2799307672        3.6412325430        3.1386312886
 H         -1.9607253013        2.7811994084        1.6960444066
 H          0.3028980743        4.9094139029        1.6121537937
 H         -0.4174307605        4.0626937507        0.1889536165
 H          1.0007465272        2.7564861191        2.6028955513
