  62
        -98.93978286
 C         -2.5873571290       -1.3684878272        0.2214755758
 C         -2.8320765378       -0.4759093258       -0.8513947639
 C         -3.9340514318        0.4772427272       -0.6501539317
 C         -4.6365854359        0.4681784330        0.4961831670
 C         -5.7976604260        1.3629643686        0.8352912466
 C         -5.3896574002        2.7365663313        1.3851258107
 C         -4.8025152117        3.7017401238        0.3545719930
 H         -5.4762897601        3.7735632017       -0.4998055199
 H         -4.7648279581        4.6869734033        0.8233851226
 C         -3.3931851706        3.3320652417       -0.1290073869
 H         -2.9435846124        2.6194804590        0.5667173548
 H         -2.7614782512        4.2233057201       -0.1263469697
 C         -3.3423526549        2.7458717136       -1.5400056577
 H         -3.6694679202        3.4979423006       -2.2615334679
 H         -2.3042183576        2.4915522246       -1.7698465052
 C         -4.1931112302        1.4834220404       -1.7313115090
 H         -5.2506502281        1.7445451638       -1.7616564157
 H         -3.9173750956        1.0261297748       -2.6849156505
 H         -4.6730361264        2.5893231272        2.1963083537
 H         -6.2848367884        3.1951176739        1.8112826290
 H         -6.4280530759        1.4944592508       -0.0446348145
 H         -6.3751366831        0.8429838400        1.6025990617
 O         -4.3702985383       -0.4031984493        1.5046006212
 C         -3.3443972538       -1.3252938467        1.3970961042
 O         -3.2093839563       -2.0546637804        2.3995321433
 H         -0.2387066094       -0.2601308204       -0.7845357728
 C          0.3450409454       -0.7569793123       -0.0230924642
 C         -0.1639368950       -1.8947022646        0.5884351953
 C          0.6073643373       -2.5316464204        1.5530895909
 C          1.8571176511       -2.0424353395        1.8917790228
 C          2.3626702412       -0.9124049938        1.2745023830
 C          1.5988772514       -0.2675021969        0.3105324312
 N          2.1141165957        0.8800584189       -0.3279726651
 S          3.5274289718        0.6433438867       -1.2138382554
 O          3.5408309021        1.6934989787       -2.2082911555
 O          3.6136841604       -0.7123890864       -1.7065763410
 C          4.8256964239        0.9451242466       -0.0335747291
 C          5.7398460278       -0.0497321461        0.2528709833
 C          6.7472208636        0.2100274250        1.1691911652
 C          6.8222038226        1.4532475063        1.7784614107
 C          5.8970740568        2.4423016365        1.4782938390
 C          4.8884161942        2.1896622860        0.5623323323
 H          4.1532741933        2.9308795409        0.2965172858
 H          5.9588055746        3.4077049260        1.9542420148
 H          7.6066533002        1.6529613665        2.4912638023
 H          7.4672856019       -0.5574011771        1.4036798168
 H          5.6381394949       -1.0021073324       -0.2423741581
 H          1.4293164659        1.3390893724       -0.9129554004
 H          3.3357829907       -0.5272688378        1.5321996239
 H          2.4443414632       -2.5468174056        2.6437306852
 H          0.2165469653       -3.4115595001        2.0430548242
 C         -1.5099166728       -2.4407924392        0.1875466477
 H         -1.8116253431       -3.1707950117        0.9549374183
 C         -1.4662346164       -3.1818567477       -1.1442495938
 C         -0.3356310902       -3.0882499555       -2.1206191679
 C         -0.5337833445       -4.3426517112       -1.3270192587
 H         -0.8965750862       -5.2257758119       -1.8306036350
 H          0.1704104790       -4.5424457359       -0.5333550431
 H         -0.5840821805       -3.0905557607       -3.1713404819
 H          0.5096740467       -2.4603022808       -1.8827915589
 H         -2.4569311414       -3.2860462139       -1.5758333400
 O         -2.1810606905       -0.4547114542       -1.9289661645
