  62
        -98.94258055
 C          1.4974556217        1.4234648144        0.2813285267
 C          1.9801596017        0.9261655997       -0.9541663916
 C          2.8757788900       -0.2381079074       -0.8661988942
 C          3.2008073756       -0.7359228244        0.3406461847
 C          4.0488864016       -1.9537662247        0.5649821854
 C          3.1870225655       -3.2211695275        0.6502967707
 C          2.1640431392       -3.3492531082       -0.4786730160
 H          1.6274816716       -4.2887688427       -0.3294162367
 H          1.4308241435       -2.5435702634       -0.3899943609
 C          2.7728196109       -3.3315713834       -1.8881651869
 H          3.8396960639       -3.5511399232       -1.8333520520
 H          2.3092693156       -4.1238687340       -2.4800011463
 C          2.5667316205       -2.0249064070       -2.6569440810
 H          1.5070246782       -1.7550015398       -2.6460916986
 H          2.8461230666       -2.1972208411       -3.6998460940
 C          3.3755847324       -0.8205550286       -2.1581879520
 H          4.4300708413       -1.0922157812       -2.0800782093
 H          3.2797062931       -0.0251366780       -2.9033277370
 H          3.8472738666       -4.0901668961        0.6444724054
 H          2.6505802227       -3.2074263717        1.6011505194
 H          4.7686102675       -2.0440220955       -0.2462090798
 H          4.5893683906       -1.8286518078        1.5046079436
 O          2.7487301551       -0.2073121772        1.5053200903
 C          1.8841904910        0.8754339675        1.5055079050
 O          1.5386481631        1.2568094775        2.6404716418
 H         -0.4155846323        0.2040067324       -0.6417256988
 C         -1.1534366972        0.9944622121       -0.6852319957
 C         -0.8239896336        2.2687975720       -0.2507883157
 C         -1.8042577670        3.2558883583       -0.3168050829
 C         -3.0709343616        2.9712577563       -0.7931598936
 C         -3.3920404120        1.6958501797       -1.2259368515
 C         -2.4187582652        0.7109098868       -1.1814037042
 N         -2.7514411641       -0.6036074972       -1.6006807933
 S         -3.5200511127       -1.5001226045       -0.4103908064
 O         -3.6911804609       -2.8286268054       -0.9512726474
 O         -4.7174487155       -0.8008045671       -0.0236898685
 C         -2.3542523846       -1.5331600303        0.9385098304
 C         -1.4577404485       -2.5796135446        1.0189450453
 C         -0.4844224174       -2.5535479098        2.0048473371
 C         -0.4106972567       -1.4757625232        2.8734761646
 C         -1.3152433545       -0.4298506164        2.7761959478
 C         -2.2989777511       -0.4555094377        1.8007623704
 H         -3.0224292380        0.3373457357        1.6976119982
 H         -1.2357166636        0.4122175907        3.4444516257
 H          0.3630968831       -1.4354333957        3.6240290386
 H          0.2168842419       -3.3686319232        2.0870189815
 H         -1.5439740738       -3.3950059099        0.3181785285
 H         -1.9487123022       -1.1254198093       -1.9252305304
 H         -4.3770720114        1.4464420490       -1.5843313364
 H         -3.8181589713        3.7490544323       -0.8272171848
 H         -1.5686719902        4.2542412046        0.0159771641
 C          0.5340450100        2.5894568714        0.3333104731
 H          0.3877806361        2.8077263562        1.4017057530
 C          1.1338996508        3.8193321770       -0.3287808650
 C          0.9603765501        5.1782640596        0.2774982096
 C          2.2956020248        4.5008197832        0.3283331790
 H          3.0952763242        4.8736565034       -0.2936576241
 H          2.6294197032        4.1033194048        1.2762973842
 H          0.8389894360        6.0240389033       -0.3822340447
 H          0.4078817448        5.2541222658        1.2022319286
 H          1.1522603838        3.7430199719       -1.4093697468
 O          1.6724360317        1.4094602114       -2.0753695853
