  62
        -98.94113688
 C         -2.6702705631       -0.4409474858        0.0802493577
 C         -2.2194991398       -1.1834036916       -1.0428457214
 C         -1.5723915351       -2.4713219563       -0.7695112775
 C         -1.4576328606       -2.8850517067        0.5047721947
 C         -0.8351711707       -4.1808419430        0.9392082146
 C          0.6520450545       -4.0183270934        1.2755232042
 C          1.4586705543       -3.2988838963        0.1944918334
 H          1.1530583847       -2.2504692734        0.1563687082
 H          2.5045566137       -3.3093806401        0.5119690295
 C          1.3440847010       -3.9109449660       -1.2087085553
 H          2.3403747918       -3.9396893607       -1.6547632763
 H          0.9884013481       -4.9400882526       -1.1386013657
 C          0.4502105978       -3.1229080455       -2.1695161562
 H          0.6584755235       -3.4640829462       -3.1874707090
 H          0.7094740841       -2.0623802918       -2.1134926319
 C         -1.0611676243       -3.2596013767       -1.9414673979
 H         -1.5713064147       -2.8526274189       -2.8195587899
 H         -1.3282990152       -4.3148480386       -1.8460435721
 H          1.0745972787       -5.0103178591        1.4495591955
 H          0.7384413384       -3.4413475842        2.1994832016
 H         -0.9604839459       -4.9160787994        0.1462464781
 H         -1.3621049752       -4.5272927546        1.8305206062
 O         -1.9007402237       -2.1534663541        1.5565107863
 C         -2.4696515973       -0.8937331315        1.3843951985
 O         -2.7606887622       -0.3378956608        2.4595580594
 O         -2.3790515959       -0.7847079862       -2.2291230164
 C         -3.2685293514        0.9208766346       -0.2359770075
 C         -2.1649491223        1.8651063919       -0.6484426445
 C         -2.3450703643        2.7996483171       -1.6619955903
 C         -1.3075100686        3.6321624775       -2.0428626132
 C         -0.0604655006        3.5197605725       -1.4540010780
 C          0.1316084456        2.5804395932       -0.4486577438
 C         -0.9265440947        1.7884390215       -0.0309245943
 H         -0.7620930889        1.0705539680        0.7599381709
 N          1.3889674454        2.3792553789        0.1526918954
 S          1.8162993723        0.7418058598        0.3053108923
 O          1.3702022023        0.0200411213       -0.8627168682
 O          1.3600185667        0.2593211400        1.5847073575
 C          3.5962502303        0.8526314425        0.3160561994
 C          4.2248993857        1.2967053741        1.4642250405
 C          5.6057545537        1.4129775155        1.4685562901
 C          6.3305040973        1.0849680540        0.3320158582
 C          5.6856733653        0.6375658141       -0.8111603369
 C          4.3043140132        0.5208872048       -0.8231201265
 H          3.7582841964        0.1721268430       -1.6850060435
 H          6.2512124014        0.3790383039       -1.6917898260
 H          7.4051605134        1.1755471950        0.3388626818
 H          6.1106439639        1.7573967902        2.3565701441
 H          3.6201105789        1.5291744456        2.3252839626
 H          2.1235910643        2.9037109196       -0.3049844386
 H          0.7598736643        4.1424915594       -1.7775006083
 H         -1.4619032753        4.3563255989       -2.8282980622
 H         -3.2963491201        2.8524591188       -2.1708902103
 H         -3.9051912978        0.7654259968       -1.1236497060
 C         -4.1476385920        1.4950023832        0.8628322947
 C         -3.6657897301        2.5427433957        1.8163274438
 C         -4.6782691665        2.8952510460        0.7707577196
 H         -5.6963568124        3.0759399299        1.0802766666
 H         -4.3488417308        3.5078134062       -0.0539522266
 H         -3.9751341055        2.4624118794        2.8467743061
 H         -2.6557779223        2.9045307822        1.6956207681
 H         -4.8181226105        0.7476847422        1.2729744116
