  62
        -98.94368471
 C          1.7005037702        1.1217057901       -0.3132359179
 C          0.6904067305        1.6702145733       -1.1336883508
 C         -0.2016889992        2.6635095127       -0.5105881078
 C         -0.0559587982        2.9511802894        0.7964068275
 C         -0.7898390483        3.9350082692        1.6835054562
 C         -2.1337154103        4.5221601818        1.2602103801
 C         -3.2732053243        3.5091993687        1.1765300913
 H         -3.4728763746        3.1189311276        2.1778010753
 H         -4.1693571599        4.0343170084        0.8372377728
 C         -3.0193541087        2.3182678984        0.2553433495
 H         -3.9301358253        1.7121742519        0.2329318755
 H         -2.2349529616        1.6852225072        0.6784683410
 C         -2.6651016247        2.6874049395       -1.1848584184
 H         -3.3968224033        3.4027628676       -1.5655144430
 H         -2.7477127085        1.7788163046       -1.7849075716
 C         -1.2530743893        3.2666923093       -1.3993479440
 H         -0.9474983784        3.0421057471       -2.4255411938
 H         -1.2512365343        4.3496474111       -1.2896176390
 H         -2.0359481708        5.0568735017        0.3199832711
 H         -2.4021927486        5.2600946499        2.0212039629
 H         -0.0899224738        4.7604275021        1.8573072922
 H         -0.9109899223        3.4242875354        2.6443804101
 O          0.9171699453        2.3730364438        1.5576291615
 C          1.8054059640        1.4488695489        1.0376476482
 O          2.6331352280        1.0128461177        1.8613210570
 O          0.5384003048        1.3503379990       -2.3447088221
 C          2.6451138997        0.0762044826       -0.8826466804
 C          2.4975355862       -1.1928246068       -0.0791796074
 C          3.5592412840       -1.9118127411        0.4514230302
 C          3.3186605973       -3.0146921708        1.2540045697
 C          2.0286353379       -3.4062502182        1.5600964933
 C          0.9581637271       -2.7038918369        1.0150027267
 C          1.2052018911       -1.6364864864        0.1709118315
 H          0.3765679086       -1.0932580242       -0.2527327177
 N         -0.3650443836       -3.0686362116        1.2945263503
 S         -1.6238112213       -1.9649461719        1.2457667283
 O         -1.2022479757       -0.6207198364        1.5615063160
 O         -2.6246113539       -2.5407921215        2.1204095736
 C         -2.1989235138       -2.0911907584       -0.4345444058
 C         -2.0173620004       -1.0517921235       -1.3226459985
 C         -2.4503514754       -1.2011350261       -2.6309800438
 C         -3.0612515784       -2.3807402114       -3.0256178690
 C         -3.2460399549       -3.4142891351       -2.1189700049
 C         -2.8095839304       -3.2718801755       -0.8123621590
 H         -2.9385743201       -4.0462514058       -0.0747161451
 H         -3.7247283218       -4.3293566373       -2.4282938334
 H         -3.3952556792       -2.4925662341       -4.0450247116
 H         -2.2939375075       -0.3955794515       -3.3313200023
 H         -1.5375726484       -0.1444059027       -0.9895491602
 H         -0.4791219017       -3.7492606117        2.0302311912
 H          1.8469560700       -4.2409944031        2.2198151863
 H          4.1509067870       -3.5625203983        1.6697723936
 H          4.5722291947       -1.5997165650        0.2570137236
 H          2.2979287799       -0.1116326911       -1.9093766921
 C          4.0627935348        0.6041212633       -0.9308756825
 C          5.0292295422        0.0821941358       -1.9508513230
 C          4.4772083400        1.4688920722       -2.0822252047
 H          5.1295187671        2.3070454557       -1.8882645172
 H          3.7403751633        1.6580087860       -2.8490348974
 H          6.0651126162       -0.0305516880       -1.6686531610
 H          4.6731577071       -0.6715787307       -2.6364081441
 H          4.4413781352        0.8631109880        0.0518263235
