  62
        -98.93217946
 C          2.5749993015        1.1287095353       -0.1541009004
 C          2.2790228191        0.0829023301       -1.0619595975
 C          2.8664622749       -1.2402411810       -0.7538580238
 C          3.6759961621       -1.3825073927        0.3104374535
 C          4.4505739162       -2.5755419179        0.8331716358
 C          4.1800812058       -3.9770885434        0.2938524104
 C          2.8194491671       -4.5574055995        0.6827582855
 H          2.6669258205       -5.4830708500        0.1240542246
 H          2.8442452102       -4.8097650983        1.7458132955
 C          1.6194550825       -3.6392663354        0.4614027743
 H          1.7326102513       -2.7317456186        1.0582611924
 H          0.7278407649       -4.1525698500        0.8312753516
 C          1.3478418282       -3.2419002077       -0.9878528811
 H          1.2106768875       -4.1380025294       -1.5973194843
 H          0.4099078810       -2.6780484242       -1.0009486765
 C          2.4266378832       -2.3658206245       -1.6448326257
 H          3.2748340947       -2.9614590818       -1.9738891123
 H          1.9863758815       -1.9005697027       -2.5321377248
 H          4.3128136587       -3.9943733099       -0.7839222082
 H          4.9493703120       -4.6284712486        0.7174155105
 H          4.3058844705       -2.5740449107        1.9182002739
 H          5.5062624603       -2.3365233880        0.6637522547
 O          3.9794892471       -0.3266817375        1.1240181759
 C          3.4141645286        0.9202120368        0.9413009108
 O          3.7469289020        1.7611877764        1.8018420690
 O          1.5763896775        0.2190089429       -2.0957847613
 C          1.9802162440        2.5239557374       -0.2453890766
 C          0.7084503949        2.6087236281        0.5615807360
 C          0.4663255997        3.6988443511        1.3900995281
 C         -0.7080440878        3.7834154563        2.1163676801
 C         -1.6638320880        2.7885830543        2.0239296565
 C         -1.4246308744        1.6852375251        1.2111021211
 C         -0.2427533824        1.6010115470        0.4892578442
 H         -0.0738434843        0.7419439917       -0.1422257348
 N         -2.3576039701        0.6399801480        1.1332494646
 S         -2.5136320061       -0.1965686957       -0.3277877964
 O         -1.5274747193       -1.2442904587       -0.3711077347
 O         -2.5349530360        0.7410369983       -1.4266746067
 C         -4.1326559009       -0.9109637333       -0.1030787694
 C         -5.2375514560       -0.2555576126       -0.6128254140
 C         -6.4952578121       -0.8002666910       -0.4063184177
 C         -6.6264612330       -1.9834088549        0.3051648679
 C         -5.5082695619       -2.6305605735        0.8098905713
 C         -4.2478779871       -2.0915409683        0.6060634694
 H         -3.3494198215       -2.5619283939        0.9706560142
 H         -5.6134069990       -3.5518917855        1.3596642879
 H         -7.6060635418       -2.4055737182        0.4644708962
 H         -7.3657386846       -0.3013688102       -0.8007739305
 H         -5.0854689476        0.6560006916       -1.1682309762
 H         -3.2568725352        0.8825486904        1.5261177278
 H         -2.5834509544        2.8560979876        2.5849736927
 H         -0.8839384798        4.6350349367        2.7558100928
 H          1.2131906536        4.4750388458        1.4709463650
 H          2.7172180801        3.1877126239        0.2364690757
 C          1.7950196721        3.0224309225       -1.6714372008
 C          0.4754919435        3.0423680865       -2.3759775920
 C          1.1024039760        4.3279266710       -1.9320691698
 H          1.5124418383        4.9878540830       -2.6815481625
 H          0.6578941551        4.8347087645       -1.0889636259
 H          0.4708840732        2.7973044488       -3.4273392385
 H         -0.3943844997        2.6724530384       -1.8540866777
 H          2.6607434613        2.7989064129       -2.2870971571
