  62
        -98.93753284
 C          2.0030851546        0.8558524366        0.4878044098
 C          2.0530087246        0.1563153353       -0.7398280104
 C          2.2330048563       -1.3029816126       -0.6529761241
 C          2.3026585803       -1.8827373093        0.5575377190
 C          2.5181494127       -3.3392857557        0.8640027378
 C          4.0133108829       -3.6408510774        1.0641803010
 C          4.7808707694       -3.9729764694       -0.2148665488
 H          5.8389863028       -4.0353775436        0.0490768602
 H          4.4726538871       -4.9578571375       -0.5715614794
 C          4.6171635689       -2.9660155495       -1.3561873167
 H          4.6682032426       -1.9500399303       -0.9605729877
 H          5.4610299157       -3.0918582750       -2.0371602835
 C          3.3116856895       -3.1529365633       -2.1436032982
 H          3.5374408233       -3.2068756848       -3.2105592235
 H          2.8657055893       -4.1096736226       -1.8726376276
 C          2.2750826385       -2.0332827456       -1.9674627284
 H          2.4526876865       -1.2501832054       -2.7115848936
 H          1.2745675596       -2.4317240575       -2.1682527269
 H          4.1107558370       -4.4872404160        1.7470402027
 H          4.4657856681       -2.7735556207        1.5517910136
 H          1.9914263130       -3.5387795589        1.7998014563
 H          2.0891503206       -3.9616966280        0.0843525403
 O          2.2369594643       -1.1717720992        1.7183626271
 C          2.0718169423        0.2002847883        1.7145760069
 O          2.0076300009        0.7172605750        2.8510112209
 H         -0.4768394281        0.9034351475        0.5306508930
 C         -0.6001545092        1.7987501253       -0.0617098092
 C          0.4650216574        2.6792445329       -0.2006713066
 C          0.2757111995        3.8347061777       -0.9480171872
 C         -0.9465920631        4.0865001314       -1.5477756834
 C         -1.9962012930        3.1957485494       -1.4252639537
 C         -1.8147099037        2.0325057132       -0.6829369106
 N         -2.8426334057        1.0795254648       -0.5955351333
 S         -2.7847899593       -0.1796692950        0.5138076585
 O         -2.7272396896        0.3316746598        1.8671831161
 O         -1.7452609879       -1.1016197033        0.1283169363
 C         -4.3803361810       -0.9149996735        0.2096057836
 C         -5.4326287137       -0.6489524065        1.0648149465
 C         -6.6719657838       -1.2100853917        0.7982130074
 C         -6.8375653016       -2.0213598509       -0.3140457344
 C         -5.7716610917       -2.2803536387       -1.1632043478
 C         -4.5300978079       -1.7234604602       -0.9015320870
 H         -3.6700011387       -1.9027817900       -1.5256916439
 H         -5.9027441890       -2.9136715676       -2.0257043887
 H         -7.8025091905       -2.4571770353       -0.5191940813
 H         -7.5012166891       -1.0132845273        1.4583362568
 H         -5.2535156157       -0.0197521485        1.9217710194
 H         -3.7703632291        1.4629137167       -0.7055460209
 H         -2.9432384114        3.3874463226       -1.9051738083
 H         -1.0814645486        4.9892625204       -2.1239839609
 H          1.0858061100        4.5364577579       -1.0621219868
 C          1.7668565293        2.3537837566        0.4944235420
 H          1.6668605553        2.6407691245        1.5528673378
 C          2.9563411367        3.0814592875       -0.0999526078
 C          3.3602859417        4.4290950516        0.4157499766
 C          4.1982898587        3.2264063121        0.7256363992
 H          5.1565822116        3.1221499255        0.2395579938
 H          4.1716364966        2.8266393734        1.7294222288
 H          3.7483010097        5.1536278981       -0.2842796144
 H          2.7749736745        4.8548911416        1.2168936868
 H          3.0782799488        2.8766276838       -1.1572736809
 O          1.9569962157        0.7233647588       -1.8607442747
