  62
        -98.93805407
 C         -2.4466133360       -1.2008980623       -0.0648201603
 C         -3.1993805116       -0.5074897992        0.9090997658
 C         -4.0593277772        0.5844096555        0.4198431098
 C         -4.0745906630        0.8619631520       -0.8957979278
 C         -4.8350597518        1.9574462095       -1.5909521942
 C         -3.9623593581        3.2148360484       -1.7432958581
 C         -3.9991562915        4.1730665147       -0.5532671561
 H         -3.2448684515        4.9429260010       -0.7317706916
 H         -4.9715803584        4.6687081494       -0.5214038969
 C         -3.7337906803        3.5328977611        0.8119871798
 H         -2.9037260327        2.8278634426        0.7332335118
 H         -3.4203854699        4.3229114182        1.4975360973
 C         -4.9658092272        2.8267592742        1.3977319265
 H         -5.8468569714        3.1147343835        0.8246997928
 H         -5.1319279484        3.1778684042        2.4183412740
 C         -4.8729193389        1.2951614372        1.4670797858
 H         -4.4160919958        1.0016910482        2.4177790632
 H         -5.8847421617        0.8761596905        1.4661652028
 H         -2.9344544544        2.8891362592       -1.9231349611
 H         -4.2901265718        3.7637258122       -2.6283027482
 H         -5.0790396033        1.5816748858       -2.5866743859
 H         -5.7581753991        2.1802078087       -1.0643092916
 O         -3.3192418346        0.1787058713       -1.7993185632
 C         -2.4867467131       -0.8592523217       -1.4165503312
 O         -1.8511893129       -1.3822969739       -2.3499595046
 O         -3.1476640210       -0.7807554776        2.1404760222
 C         -1.5443129478       -2.3396083380        0.3714930618
 C         -0.1060734740       -2.0426381984        0.0227561693
 C          0.7533838258       -2.9822398702       -0.5308537761
 C          2.0688413137       -2.6519886667       -0.8086927804
 C          2.5563388860       -1.3867478819       -0.5402728223
 C          1.7098280538       -0.4422961374        0.0260194019
 C          0.3949875840       -0.7778802846        0.3073903668
 H         -0.2619144574       -0.0403448494        0.7539110847
 N          2.1972483576        0.8501876751        0.2983872148
 S          3.5628126225        0.9701599764        1.2725989646
 O          3.6457743234       -0.1347191496        2.1999445500
 O          3.4981586746        2.2936049044        1.8533873027
 C          4.9201585847        0.9048109356        0.1230084103
 C          5.8920719476       -0.0667146957        0.2613224518
 C          6.9435414829       -0.0953126545       -0.6416542808
 C          7.0038070894        0.8429383501       -1.6607092668
 C          6.0210267334        1.8140436328       -1.7837280219
 C          4.9680826425        1.8493015065       -0.8835564138
 H          4.1865564586        2.5885585689       -0.9415812940
 H          6.0713011790        2.5419406064       -2.5774839849
 H          7.8216562319        0.8176666064       -2.3634153071
 H          7.7087285765       -0.8489887168       -0.5475008191
 H          5.7992882822       -0.7790018626        1.0655519321
 H          1.4843361354        1.4867811252        0.6248479733
 H          3.5772454106       -1.1238867429       -0.7638103348
 H          2.7228981101       -3.3911269878       -1.2453168880
 H          0.3925821573       -3.9738336786       -0.7487587127
 H         -1.6242647182       -2.3722019416        1.4690446019
 C         -2.0463215674       -3.6532789045       -0.1905437061
 C         -1.8227094593       -4.9321392086        0.5582282007
 C         -3.1951290916       -4.3352192782        0.4879802194
 H         -3.9410064737       -4.8207644612       -0.1231442451
 H         -3.5963383035       -3.8648837647        1.3740773218
 H         -1.6284273812       -5.8323937191       -0.0050106539
 H         -1.2937732144       -4.8756933341        1.4977240333
 H         -2.0178886251       -3.6789201732       -1.2740510360
