  62
        -98.93903966
 C         -2.7051882660       -0.2007382061       -0.2426079459
 C         -2.2322528966       -0.9486811106        0.8646689986
 C         -1.7875334271       -2.3214497860        0.5676990837
 C         -1.8441507869       -2.7838257256       -0.6928762845
 C         -1.4149635865       -4.1546405105       -1.1295461739
 C          0.0504474190       -4.1782685953       -1.5821465616
 C          1.0190221152       -3.5231194135       -0.5968405660
 H          2.0265961448       -3.6554939919       -0.9988269478
 H          0.8325924058       -2.4470470709       -0.5665009639
 C          0.9626355475       -4.0897910327        0.8283580704
 H          0.4939663563       -5.0753810439        0.8185641219
 H          1.9848513925       -4.2179683688        1.1911169674
 C          0.2441433673       -3.1958635927        1.8415770556
 H          0.6334218015       -2.1758653641        1.7718778038
 H          0.4771914689       -3.5647468769        2.8448613190
 C         -1.2846364362       -3.1439087549        1.7204047725
 H         -1.6849507124       -4.1596069438        1.6735362291
 H         -1.6723365396       -2.6616974402        2.6229717501
 H          0.3416126468       -5.2183406749       -1.7440552754
 H          0.1277449863       -3.6487609922       -2.5344418418
 H         -1.5618868020       -4.8508444819       -0.3056913265
 H         -2.0476412813       -4.4572704366       -1.9662127630
 O         -2.2977707632       -2.0359237440       -1.7316965679
 C         -2.7067978149       -0.7295105963       -1.5356175358
 O         -3.0750278750       -0.1474708708       -2.5773406355
 O         -2.1911056556       -0.5222465544        2.0480522715
 C         -3.1521678241        1.2502864232       -0.1500921931
 C         -1.9842722108        2.1609344682       -0.4367051466
 C         -2.1218920703        3.2958632380       -1.2256850438
 C         -1.0319908723        4.1085830642       -1.4910261642
 C          0.2224713092        3.7852108970       -1.0071409406
 C          0.3714037192        2.6445449982       -0.2266883861
 C         -0.7295380613        1.8632695133        0.0783299839
 H         -0.5972368943        0.9972804267        0.7099696605
 N          1.6644689384        2.2393073152        0.1954553346
 S          1.9425721917        0.5958240153        0.3747184078
 O          1.2832617284       -0.0885684054       -0.7079061006
 O          1.6567193135        0.1518809897        1.7233549178
 C          3.7069746392        0.5690882203        0.1188991578
 C          4.1819260348        0.6520931698       -1.1757225594
 C          5.5507954426        0.6736474894       -1.3887297782
 C          6.4187660865        0.6154344073       -0.3082112052
 C          5.9280183360        0.5312298138        0.9856551808
 C          4.5592508102        0.5085987146        1.2041460278
 H          4.1326959757        0.4343085765        2.1915836963
 H          6.6045301521        0.4833425410        1.8237828579
 H          7.4839834745        0.6337730881       -0.4764023365
 H          5.9352408921        0.7363138939       -2.3940560714
 H          3.4679301241        0.6883941206       -1.9824283964
 H          2.0608686537        2.7853554101        0.9458835310
 H          1.0824980529        4.3940295507       -1.2344417403
 H         -1.1582852079        4.9900087959       -2.1009622386
 H         -3.0880224052        3.5302043300       -1.6485270336
 H         -3.8812690805        1.3871138596       -0.9656774773
 C         -3.8587149175        1.5913177037        1.1540739745
 C         -3.2199498563        2.3953179288        2.2422603775
 C         -4.3190526435        2.9942083940        1.4205360204
 H         -5.2859478542        3.1389080251        1.8777802786
 H         -4.0478366938        3.7547434340        0.7045721305
 H         -3.4213753651        2.1059607573        3.2621246907
 H         -2.2112860693        2.7457073874        2.0852251022
 H         -4.5201310473        0.7928108409        1.4732519438
