  62
        -98.94133950
 C          2.3675047414        1.0713052185       -0.5887109103
 C          3.5361485805        0.7306692009        0.1427771764
 C          4.1563405316       -0.5569514619       -0.1823171623
 C          3.6104414283       -1.3365542795       -1.1328456741
 C          4.1330090207       -2.6695923472       -1.5949253754
 C          3.6936136958       -3.8495561057       -0.7172084603
 C          4.3746607691       -3.9321485049        0.6494958340
 H          4.1437037119       -4.9157666743        1.0631672418
 H          5.4559923853       -3.8786977053        0.5195114622
 C          3.9206947979       -2.8592755857        1.6494119883
 H          3.7225711765       -3.3245503086        2.6178112292
 H          2.9787436132       -2.4195050599        1.3113585404
 C          4.9355558228       -1.7401093571        1.8842057720
 H          5.8318878892       -2.1517119487        2.3533847226
 H          4.4934631833       -1.0184824010        2.5759115976
 C          5.3511683620       -0.9864092140        0.6142507001
 H          5.8930913919       -0.0856165677        0.9123872681
 H          6.0095378988       -1.6070286279        0.0069136507
 H          3.9184730593       -4.7662916951       -1.2672578553
 H          2.6103321441       -3.8005501194       -0.5814816415
 H          5.2217265732       -2.6383187499       -1.6459664005
 H          3.7409187608       -2.8249866485       -2.6022831043
 O          2.4953530318       -0.9742059245       -1.8176848089
 C          1.8354841551        0.2185661032       -1.5558985248
 O          0.8196541773        0.3834622563       -2.2614925303
 O          4.0434420938        1.4777503153        1.0209581530
 C          1.7056096968        2.3967251012       -0.2446754158
 C          0.4956935463        2.1482159131        0.6240210260
 C          0.5554157128        2.3673492978        1.9958680445
 C         -0.5354124699        2.0932697147        2.8020459235
 C         -1.7062809401        1.5929618213        2.2603439403
 C         -1.7703435556        1.3583388037        0.8931331573
 C         -0.6801980995        1.6463973751        0.0847691601
 H         -0.7301242266        1.4378811326       -0.9733816441
 N         -2.9554370419        0.8378592429        0.3201398361
 S         -3.4246835885       -0.6914977319        0.8690287693
 O         -3.7683327440       -0.5914273324        2.2647590231
 O         -2.4204385618       -1.6800563957        0.5341823703
 C         -4.8974319958       -0.9465804040       -0.1001261106
 C         -4.8201192454       -1.6710336316       -1.2737853398
 C         -5.9659561062       -1.8354699137       -2.0364296366
 C         -7.1610984445       -1.2715158174       -1.6162745303
 C         -7.2221182382       -0.5454607955       -0.4360392827
 C         -6.0807544837       -0.3788770011        0.3317795979
 H         -6.0814491506        0.1694577370        1.2590131271
 H         -8.1536752593       -0.1098715407       -0.1126773327
 H         -8.0505994417       -1.4008381305       -2.2124150349
 H         -5.9208691119       -2.4008713955       -2.9533951213
 H         -3.8708458684       -2.0968606519       -1.5588060271
 H         -2.8592510646        0.7823570718       -0.6871143937
 H         -2.5551177924        1.3569715591        2.8805080098
 H         -0.4737171975        2.2687894352        3.8655812256
 H          1.4738595468        2.7369270365        2.4292622498
 H          2.4465748235        2.9345054577        0.3619352691
 C          1.3807043574        3.2380255283       -1.4622038369
 C          1.1292606780        4.7042919760       -1.2832659621
 C          2.3862743683        4.2353054365       -1.9506990349
 H          2.4920915740        4.3791548758       -3.0154958093
 H          3.3152193565        4.3164046377       -1.4053888486
 H          0.3694247479        5.1740154225       -1.8885367484
 H          1.2053785159        5.1039754761       -0.2834159540
 H          0.8026845070        2.7139177743       -2.2118762739
