  62
        -98.93838290
 C         -1.9115874686       -0.8317419574        0.1058531844
 C         -2.3703693491        0.5053025730        0.1190533334
 C         -3.7894323048        0.7029192458        0.4704065569
 C         -4.5472765788       -0.3679375980        0.7637336347
 C         -6.0160963889       -0.3891175895        1.0850330849
 C         -6.8449108547       -0.6453559132       -0.1851575767
 C         -7.2067718814        0.6073435359       -0.9821214443
 H         -7.6724286115        0.2767239376       -1.9134136210
 H         -7.9530988260        1.1814199234       -0.4289423954
 C         -6.0334364090        1.5306668690       -1.3209395637
 H         -5.1763232077        0.9357852391       -1.6419932255
 H         -6.3303381766        2.1516470261       -2.1684968273
 C         -5.6277424087        2.4444769688       -0.1549254632
 H         -6.4055591232        2.4140091663        0.6079680526
 H         -5.5789875216        3.4774440598       -0.5058248408
 C         -4.2661012517        2.1296310895        0.4831597607
 H         -3.4814903659        2.6864249330       -0.0391697476
 H         -4.2650802856        2.4885230758        1.5178893344
 H         -6.2815438511       -1.3349964411       -0.8189796256
 H         -7.7734173455       -1.1457715128        0.0969675055
 H         -6.1722672232       -1.2205772794        1.7754239936
 H         -6.3175639230        0.5331407574        1.5725174428
 O         -4.0586540581       -1.6389043325        0.7527453411
 C         -2.7429021114       -1.9050430812        0.4242911679
 O         -2.4351223090       -3.1136438766        0.4567821405
 H          1.5896932517        0.6330919246       -0.8491075280
 C          1.4542204791        0.4548692757        0.2037795324
 C          0.4633330965       -0.3995276691        0.6587263820
 C          0.3161756499       -0.5801755701        2.0325190179
 C          1.1265466170        0.0927185408        2.9248420649
 C          2.1099978314        0.9525742108        2.4666694539
 C          2.2697005327        1.1362775708        1.0991755826
 N          3.2455868903        2.0198139908        0.6120931788
 S          4.2114949840        1.6068862321       -0.6862828863
 O          5.2954581870        2.5634341811       -0.6463703987
 O          3.4391728220        1.5688383945       -1.9009839195
 C          4.8231994485       -0.0190383615       -0.2839030933
 C          4.2016186964       -1.1343723045       -0.8067997304
 C          4.6516021692       -2.3896038549       -0.4281937905
 C          5.7078199160       -2.5070078201        0.4617155082
 C          6.3247740770       -1.3759720251        0.9750535041
 C          5.8774386975       -0.1188872186        0.6034211897
 H          6.3366043704        0.7848742617        0.9700471560
 H          7.1493876719       -1.4709664145        1.6630118310
 H          6.0533331721       -3.4860444594        0.7541164434
 H          4.1744986772       -3.2699868503       -0.8285799620
 H          3.3867242157       -1.0039979219       -1.4992404749
 H          3.7858523438        2.4810422588        1.3291866405
 H          2.7382473529        1.4878424429        3.1622964968
 H          0.9941953202       -0.0522404356        3.9864482252
 H         -0.4560719706       -1.2488417544        2.3887531388
 C         -0.4713785113       -1.1400585976       -0.2657655236
 H         -0.3410488336       -2.2184691001       -0.0938596546
 C         -0.2407003698       -0.8514489076       -1.7339751230
 C          0.7785052658       -1.6336782431       -2.5042872701
 C         -0.6826121570       -1.8606865640       -2.7491332824
 H         -1.1146790317       -1.5074041238       -3.6734228586
 H         -1.1278854466       -2.7729924167       -2.3789548619
 H          1.3196485620       -2.4029548161       -1.9739996120
 H          1.3550163516       -1.1232135739       -3.2619430107
 H         -0.3777051592        0.1946452773       -1.9841520459
 O         -1.6372521532        1.4916924053       -0.1551741376
