  62
        -98.94263476
 C         -2.1390649434       -0.8785923557        0.1687380490
 C         -2.6112223649        0.0318135897        1.1429783040
 C         -2.9704764512        1.3690357964        0.6537144147
 C         -2.7913398577        1.6622178414       -0.6475457768
 C         -3.1526899498        2.9704342805       -1.2880047247
 C         -4.5871035848        2.9456158091       -1.8345824714
 C         -5.6210689172        2.4335474560       -0.8316827767
 H         -6.5984358492        2.4903531868       -1.3154703952
 H         -5.4245914052        1.3789031803       -0.6257837235
 C         -5.6594593856        3.2095439476        0.4922288216
 H         -6.7015336536        3.4037023484        0.7542189592
 H         -5.1705247264        4.1764730020        0.3688452583
 C         -5.0325495451        2.4724931435        1.6769988343
 H         -5.4531674709        1.4662534330        1.7463027830
 H         -5.3047665995        3.0053617475        2.5918563586
 C         -3.5032945115        2.3544696544        1.6560755190
 H         -3.0592977882        3.3398946268        1.4998162333
 H         -3.1849333826        1.9855603519        2.6356714721
 H         -4.8523394264        3.9559941159       -2.1509606528
 H         -4.6103943172        2.2968840643       -2.7132319059
 H         -3.0444561401        3.7688951617       -0.5563137823
 H         -2.4593373004        3.1501397490       -2.1116583921
 O         -2.2969458876        0.7737696054       -1.5474900157
 C         -1.9566471444       -0.5153564346       -1.1660835559
 O         -1.5145998981       -1.2254889452       -2.0892116348
 O         -2.7165120335       -0.2578769149        2.3662770984
 C         -1.7345148802       -2.2773370674        0.6004506803
 C         -0.2691519405       -2.4838083559        0.3046117646
 C          0.2404243966       -3.6003401091       -0.3440868031
 C          1.5927229694       -3.6916777495       -0.6288783375
 C          2.4645580340       -2.6797418165       -0.2717337331
 C          1.9668003228       -1.5684043236        0.3935316694
 C          0.6163553941       -1.4823769828        0.6843057819
 H          0.2343401899       -0.6044512330        1.1929863112
 N          2.8526041588       -0.5179191795        0.7484188764
 S          3.2728387115        0.4983832020       -0.5399240137
 O          2.3348429284        1.6018217045       -0.6080400568
 O          3.4328906358       -0.2947752248       -1.7306504865
 C          4.8608584864        1.0931760812        0.0096614504
 C          4.9617703183        2.3351279806        0.6048571685
 C          6.1995173996        2.7613246243        1.0611785885
 C          7.3076553211        1.9403797200        0.9191510756
 C          7.1900967796        0.6950468320        0.3196700934
 C          5.9558212797        0.2641953294       -0.1389154433
 H          5.8174277189       -0.6908204397       -0.6178850751
 H          8.0543185033        0.0600740292        0.2093056692
 H          8.2691624284        2.2740500964        1.2761396982
 H          6.2934968243        3.7298845718        1.5254152370
 H          4.0749435082        2.9427579397        0.6874991117
 H          2.4464619666        0.0730710591        1.4634163548
 H          3.5130436015       -2.7281436665       -0.5141883283
 H          1.9698328709       -4.5611567243       -1.1455444776
 H         -0.4244761919       -4.3937803344       -0.6439230886
 H         -1.8739447440       -2.2999759187        1.6917376904
 C         -2.6368887509       -3.3162610086       -0.0298463587
 C         -2.8798602630       -4.6240280564        0.6609319073
 C         -3.9678758768       -3.5958542527        0.5992217248
 H         -4.8149614454       -3.7756027353       -0.0455329317
 H         -4.2129775583       -3.0533553891        1.5007190910
 H         -2.9829473567       -5.5135536793        0.0581656577
 H         -2.3901282326       -4.7863811496        1.6089988307
 H         -2.5862432213       -3.3069912835       -1.1129628451
