  62
        -98.93559095
 C         -2.2134539404       -1.0711760102       -0.0932613205
 C         -2.9374033706       -0.5096042793        0.9886788490
 C         -3.7920889606        0.6539881704        0.6987624179
 C         -3.8413001005        1.1356675094       -0.5567527925
 C         -4.5773815204        2.3214927389       -1.1447306435
 C         -5.6928759306        3.0123967495       -0.3648156443
 C         -6.9507782806        2.1678068696       -0.1640659638
 H         -7.6319484207        2.7198064601        0.4870700557
 H         -7.4429582304        2.0433931188       -1.1319254537
 C         -6.7241755806        0.7754556001        0.4195483574
 H         -7.6979273606        0.2849447301        0.5006116977
 H         -6.1217705005        0.1818234895       -0.2711400520
 C         -6.0719899108        0.7428833212        1.8003272275
 H         -6.1163897508       -0.2882168285        2.1609784083
 H         -6.6441084809        1.3639912617        2.4920966469
 C         -4.5990591408        1.1850641413        1.8483595374
 H         -4.1501540409        0.7686450320        2.7548169278
 H         -4.5115993609        2.2673210513        1.9099237565
 H         -5.9769912405        3.8945249490       -0.9451442250
 H         -5.3174556407        3.3717689102        0.5888173455
 H         -3.8045970104        3.0636626387       -1.3751397040
 H         -4.9715902203        1.9799482681       -2.1072676133
 O         -3.1104931103        0.5768395486       -1.5639936719
 C         -2.2871650803       -0.5241223212       -1.3726901109
 O         -1.7019392901       -0.8887433720       -2.4105294205
 O         -2.8736693808       -0.9684754284        2.1605149194
 C         -1.3510989604       -2.2827887399        0.2180845806
 C          0.0674685695       -1.8655282396        0.5103687405
 C          0.6930417993       -2.2229545786        1.6984299609
 C          1.9881346293       -1.8115850284        1.9631793007
 C          2.6850420694       -1.0410632491        1.0498183602
 C          2.0661412795       -0.6731434301       -0.1379470502
 C          0.7683573896       -1.0855848903       -0.3999704400
 H          0.2902071897       -0.7952333011       -1.3244085403
 N          2.7665417797        0.1073829592       -1.0777478907
 S          3.4025522595        1.5652986897       -0.5337635518
 O          2.6394590993        2.0937969405        0.5742380277
 O          3.4986010497        2.4047339487       -1.7081077025
 C          5.0440199695        1.1308208702        0.0024788188
 C          5.8824577896        0.5180308295       -0.9083000606
 C          7.1654246396        0.1765438998       -0.5116204701
 C          7.5867418294        0.4548947409        0.7803437697
 C          6.7339307592        1.0734621516        1.6816417291
 C          5.4484437693        1.4165777912        1.2916837586
 H          4.7479171892        1.8928357117        1.9590794081
 H          7.0631344691        1.2888301024        2.6854688690
 H          8.5857866793        0.1877997512        1.0866519401
 H          7.8312497197       -0.3048858507       -1.2095479997
 H          5.5160563998        0.3232519486       -1.9024117205
 H          2.2462969098        0.2528982585       -1.9320046709
 H          3.6932994394       -0.7173196489        1.2503905001
 H          2.4606278692       -2.0939055876        2.8914828610
 H          0.1506443293       -2.8114323181        2.4237980913
 H         -1.7732361406       -2.6887784192        1.1507620309
 C         -1.4518486703       -3.3746340808       -0.8390980785
 C         -0.3176825401       -3.7875421614       -1.7242576980
 C         -0.7675772002       -4.6915799606       -0.6187294073
 H         -1.2956713302       -5.5988519908       -0.8695525067
 H         -0.1265849204       -4.7753279798        0.2459560128
 H         -0.5536429700       -4.0511571523       -2.7440361978
 H          0.6290976799       -3.2826775513       -1.6158720283
 H         -2.4403265902       -3.4101471212       -1.2862830586
