  62
        -98.93718602
 C         -1.1791496863       -1.4238078043        0.6566275118
 C         -1.9951330138       -1.0309430416       -0.4299308030
 C         -3.0368746577       -0.0194192786       -0.1509679756
 C         -3.1375075724        0.4896645295        1.0898431094
 C         -4.0854375263        1.5456399884        1.5922173499
 C         -3.6651877598        2.9622548945        1.1676705968
 C         -3.2057493981        3.0905018747       -0.2826839986
 H         -2.3582906352        2.4221598194       -0.4526523398
 H         -2.8319745767        4.1088596667       -0.4223080932
 C         -4.2852965386        2.8406154332       -1.3336059332
 H         -3.8347862458        3.0349126946       -2.3104402038
 H         -5.0932717434        3.5621724586       -1.1909654562
 C         -4.8904673916        1.4356046915       -1.3594319517
 H         -5.4615156018        1.3465788301       -2.2883644756
 H         -5.5996084941        1.3007971207       -0.5471459779
 C         -3.8710690110        0.3009065288       -1.3675032377
 H         -3.1554602708        0.4702141712       -2.1805973331
 H         -4.3890735762       -0.6305831023       -1.6275206813
 H         -2.8312739946        3.2725134881        1.8024774191
 H         -4.5006179051        3.6408231363        1.3496117375
 H         -5.0974751882        1.3257111982        1.2656218525
 H         -4.0674826039        1.4910705499        2.6831229349
 O         -2.3006982343        0.1123103805        2.0984606348
 C         -1.2945369876       -0.8132719819        1.9061138032
 O         -0.5739142526       -1.0047725218        2.9075976871
 H          0.7089230210        0.0498069900       -0.1329607963
 C          1.1219753219       -0.6564264225       -0.8358967549
 C          0.8081028788       -2.0028657016       -0.7063242814
 C          1.3115534812       -2.8913368671       -1.6469085508
 C          2.0992037797       -2.4300914690       -2.6885786325
 C          2.4115539979       -1.0885092826       -2.8100278849
 C          1.9071232613       -0.1902463551       -1.8753913975
 N          2.1737574342        1.1820276429       -1.9676057250
 S          2.1753609139        2.1561259455       -0.6149202037
 O          0.8338636707        2.3519904687       -0.1244198143
 O          2.8697466224        3.3510854449       -1.0458805691
 C          3.1736071451        1.2907833929        0.5845674976
 C          4.5177931838        1.1393723143        0.3017202881
 C          5.3191113597        0.4454093190        1.1926544985
 C          4.7648337422       -0.0894907721        2.3461429168
 C          3.4164408696        0.0760488390        2.6197870119
 C          2.6110296473        0.7741277871        1.7332739611
 H          1.5578310561        0.9125833896        1.9251911902
 H          2.9750879233       -0.3381520115        3.5125705305
 H          5.3858571157       -0.6359388487        3.0381554698
 H          6.3696208901        0.3205698228        0.9855176963
 H          4.9139529791        1.5791983156       -0.5989292541
 H          2.8619801721        1.4533730215       -2.6527053570
 H          3.0222820582       -0.7340630351       -3.6258940194
 H          2.4776542477       -3.1292759344       -3.4187605749
 H          1.0729720416       -3.9399442287       -1.5800380739
 C         -0.0319293267       -2.4039313202        0.4834326826
 H          0.5927737557       -2.2569190192        1.3813938562
 C         -0.4380845180       -3.8708181190        0.4798412290
 C         -1.7644555975       -4.3135007447        1.0203092758
 C         -1.4839706700       -4.4095569389       -0.4477801301
 H         -1.3333402342       -5.3898589604       -0.8761017941
 H         -1.9648388322       -3.7079510840       -1.1102658934
 H         -2.4477277493       -3.5483371921        1.3605518673
 H         -1.8028771176       -5.2228326985        1.6015551373
 H          0.4017726939       -4.5241819884        0.6950140195
 O         -1.8717346839       -1.4881229204       -1.5961629774
