  62
        -98.93439817
 C          1.9490049660        0.6815265951        0.8372836691
 C          2.8351560245        1.0601835640       -0.1986217929
 C          4.2234435695        0.5670274735       -0.0875413709
 C          4.5709943299       -0.2289117432        0.9396180010
 C          5.9014536900       -0.8424073330        1.3235197128
 C          7.0588894365       -0.8868751017        0.3292998078
 C          6.8322801675       -1.7990177041       -0.8757879549
 H          7.6742254366       -1.6755103297       -1.5605558060
 H          6.8335408828       -2.8364166389       -0.5314781689
 C          5.5312433716       -1.5695936773       -1.6410033285
 H          5.4998841861       -2.2846798183       -2.4676507232
 H          4.6803251344       -1.7918892738       -0.9935139924
 C          5.3560587232       -0.1711486886       -2.2297080576
 H          4.4751008842       -0.1957668345       -2.8765679545
 H          6.2194178214        0.0769788602       -2.8501369551
 C          5.1464107093        0.9580049298       -1.2058939696
 H          4.6662282878        1.7943077628       -1.7221608413
 H          6.0943765995        1.3173893608       -0.8129337917
 H          7.9235473804       -1.2725176194        0.8764315022
 H          7.3156955367        0.1169833097        0.0041135787
 H          6.2326172281       -0.2982176766        2.2151128330
 H          5.6737628819       -1.8612142471        1.6531375483
 O          3.6721495744       -0.5874134511        1.9039878897
 C          2.3614913800       -0.1536189665        1.8772947942
 O          1.6656992494       -0.5678005705        2.8272530448
 O          2.5111741603        1.7841887063       -1.1737904521
 C          0.4923712480        1.1140185485        0.8916623052
 C         -0.3548192033        0.1511171286        0.1016374534
 C         -0.1352918948       -0.0530794357       -1.2576394643
 C         -0.9215686410       -0.9401623559       -1.9695099629
 C         -1.9409288668       -1.6388149911       -1.3449088384
 C         -2.1637382023       -1.4449059633        0.0109579966
 C         -1.3748105539       -0.5521082074        0.7245821908
 H         -1.5453797339       -0.4145109697        1.7839704863
 N         -3.2241238148       -2.1328155506        0.6405075686
 S         -4.7503642990       -1.7500089878        0.0545614115
 O         -5.6754122314       -2.1233529981        1.1001205458
 O         -4.9402003232       -2.3869042613       -1.2232373441
 C         -4.6939150472        0.0215229569       -0.1398797341
 C         -4.8524467170        0.8074708409        0.9844389426
 C         -4.7039288186        2.1800088843        0.8693758412
 C         -4.3870533008        2.7390043862       -0.3594378040
 C         -4.2333498497        1.9362618042       -1.4788534145
 C         -4.3866532503        0.5632082828       -1.3717250230
 H         -4.2762831777       -0.0947863128       -2.2177995893
 H         -3.9875069743        2.3747681012       -2.4325510484
 H         -4.2546637499        3.8057477227       -0.4437306796
 H         -4.8260431629        2.8079907617        1.7375269021
 H         -5.0993798714        0.3347111164        1.9219005380
 H         -3.2132398933       -2.0394287595        1.6465936095
 H         -2.5715954578       -2.3253692147       -1.8865756788
 H         -0.7404953373       -1.0897831080       -3.0231633213
 H          0.6565720616        0.4957805399       -1.7442952009
 H          0.2092950119        1.0114094295        1.9506469498
 C          0.2804149959        2.5710594349        0.4976307927
 C         -0.6425526173        3.0055744106       -0.5987472382
 C         -1.0212829827        3.2392081890        0.8300708419
 H         -1.0029264766        4.2458557946        1.2189524915
 H         -1.8018996666        2.6177590017        1.2436095488
 H         -0.3365793217        3.8477320619       -1.2002409673
 H         -1.1822772608        2.2495270548       -1.1469895368
 H          1.1771027609        3.1657860194        0.6301445107
