  62
        -98.94134377
 C         -1.8646061682       -1.3411125340        0.6378205498
 C         -1.7800291512       -0.0202987395        1.1492415981
 C         -2.9761404406        0.8178464668        1.0059501746
 C         -4.0789271571        0.2905853150        0.4442636040
 C         -5.3607314297        1.0339038433        0.2050539496
 C         -5.3839706198        1.6712849227       -1.1911203139
 C         -4.1212241411        2.4639121768       -1.5287060787
 H         -3.2759592791        1.7749227958       -1.5958331254
 H         -4.2642332854        2.8943677426       -2.5222058252
 C         -3.7861105398        3.5812712359       -0.5307903405
 H         -4.6677914559        3.8250188531        0.0629697065
 H         -3.5140468071        4.4786343939       -1.0903191882
 C         -2.6153532583        3.2666103536        0.4025813459
 H         -1.7663604533        2.9155467172       -0.1897528411
 H         -2.3158917704        4.1953952213        0.8957124691
 C         -2.8971343069        2.2340426107        1.5020499386
 H         -2.0623469657        2.2571544118        2.2090786426
 H         -3.8072731970        2.5072162838        2.0399624035
 H         -6.2558612201        2.3247117560       -1.2576004389
 H         -5.4977730917        0.8767227934       -1.9322127766
 H         -6.1877986351        0.3263516283        0.2854386306
 H         -5.4769177145        1.8004912277        0.9688176100
 O         -4.1329678194       -0.9834554244       -0.0148465710
 C         -3.0235495821       -1.8240014373        0.0288511595
 O         -3.2240015745       -2.9353145778       -0.4921177814
 H          2.0294578170       -1.5529608636        0.9090468982
 C          1.6646161176       -1.5345612163       -0.1064358055
 C          0.3383932374       -1.8359408401       -0.3742698515
 C         -0.1062781469       -1.8027313539       -1.6926363127
 C          0.7644613039       -1.4750830741       -2.7151419033
 C          2.0848093138       -1.1603873803       -2.4425771608
 C          2.5390899780       -1.1888234408       -1.1291479948
 N          3.8795631954       -0.9008847925       -0.8323782448
 S          4.3102574900        0.0628096338        0.4666405261
 O          5.7275044579        0.2854395077        0.2835429560
 O          3.9203743338       -0.5710348222        1.6993943724
 C          3.4340435114        1.5972588588        0.2272356846
 C          2.1454771098        1.7458764843        0.6981935453
 C          1.4833425935        2.9404286908        0.4595832936
 C          2.1098547151        3.9576727479       -0.2420923801
 C          3.4054565528        3.7915929447       -0.7093524068
 C          4.0733360536        2.6011919376       -0.4761914711
 H          5.0847760318        2.4341202298       -0.8098474328
 H          3.8944729547        4.5845797759       -1.2520485086
 H          1.5868984406        4.8837923298       -0.4222177773
 H          0.4767105021        3.0529609131        0.8297533614
 H          1.6584398119        0.9517080820        1.2408378847
 H          4.4445510127       -0.6747513008       -1.6382921141
 H          2.7608159165       -0.8984720320       -3.2421103662
 H          0.4105777791       -1.4569055241       -3.7349543594
 H         -1.1390073146       -2.0414066497       -1.9029175536
 C         -0.6019012123       -2.1760141368        0.7545436685
 H         -0.1203837933       -1.8394907669        1.6878863945
 C         -0.8466487998       -3.6703177114        0.8925765293
 C         -0.5335614995       -4.6603984058       -0.1846258734
 C          0.3189482893       -4.6025002034        1.0452340779
 H          0.2494891516       -5.4041851177        1.7648026864
 H          1.3086310261       -4.1801223864        0.9495555427
 H         -0.1173062110       -4.2950251420       -1.1101649544
 H         -1.2120420534       -5.4899353473       -0.3113218958
 H         -1.7211693988       -3.8836436921        1.4980925805
 O         -0.7441358870        0.4327889057        1.7060393180
