  62
        -98.94257038
 C          1.6925334281        1.3973301820        0.1215902003
 C          2.8265200286        0.8555795331        0.7763319603
 C          3.4263587998       -0.3360703462        0.1604622703
 C          2.8607453104       -0.8594883967       -0.9422722898
 C          3.3151284318       -2.1171502662       -1.6244938298
 C          2.5934131129       -3.3500619370       -1.0610469400
 C          2.5897860829       -3.4216098671        0.4658695000
 H          2.0041762620       -2.5882583377        0.8622047200
 H          2.0704982438       -4.3403198476        0.7483354799
 C          3.9859455028       -3.4058943857        1.1042022501
 H          4.7376346331       -3.6608235949        0.3562734602
 H          4.0260816835       -4.1746645458        1.8788473601
 C          4.3641623414       -2.0814863154        1.7698984402
 H          3.5719618111       -1.7772651663        2.4591743402
 H          5.2669276616       -2.2452532846        2.3644028403
 C          4.6487154303       -0.9139737151        0.8164906604
 H          5.0848068295       -0.1033450447        1.4078617705
 H          5.3790839407       -1.2226535443        0.0657530104
 H          1.5556345830       -3.3373707680       -1.4020441301
 H          3.0702691739       -4.2445464565       -1.4657131200
 H          4.3903997719       -2.2253047251       -1.4959000798
 H          3.0940519518       -2.0316948664       -2.6896616199
 O          1.7650723299       -0.3238106078       -1.5342456798
 C          1.1449634488        0.8109692216       -1.0221896298
 O          0.1453114185        1.1706368006       -1.6656730798
 O          3.3072075280        1.3375281435        1.8376341304
 C          1.0043916568        2.5891860613        0.7651000203
 C         -0.4802466029        2.3272314998        0.8275399902
 C         -1.4448375637        3.1753055689        0.3023241302
 C         -2.7850444534        2.8304370775        0.3547544200
 C         -3.1915605822        1.6375525571        0.9221416699
 C         -2.2335744614        0.7829227880        1.4530076899
 C         -0.8960324918        1.1383660093        1.4160346801
 H         -0.1520289611        0.4663508700        1.8277626101
 N         -2.6297741802       -0.4496654025        2.0093514898
 S         -3.5911392092       -1.4304031934        1.0471290796
 O         -4.9543888196       -0.9666391647        1.1154209896
 O         -3.3569445878       -2.7737204232        1.5303015696
 C         -2.9690213992       -1.2450871326       -0.6128186803
 C         -3.7108861798       -0.5548523933       -1.5484519403
 C         -3.1953085099       -0.3934253127       -2.8240112702
 C         -1.9541723893       -0.9215160314       -3.1389404602
 C         -1.2224247887       -1.6151418107       -2.1885067002
 C         -1.7298311886       -1.7759939313       -0.9108253602
 H         -1.1854561782       -2.3102604908       -0.1468897302
 H         -0.2499075683       -2.0094859297       -2.4364078201
 H         -1.5466082594       -0.7866714109       -4.1281731301
 H         -3.7589864104        0.1496108368       -3.5654606402
 H         -4.6731387902       -0.1624794543       -1.2627399503
 H         -1.8580617597       -0.9846605217        2.3811697498
 H         -4.2290897819        1.3471587160        0.9563973698
 H         -3.5234136440        3.4965466568       -0.0646834200
 H         -1.1480330846        4.0948148492       -0.1740529697
 H          1.3913628067        2.6029823416        1.7983485704
 C          1.3619968055        3.9356553417        0.1553532505
 C          2.6531570154        4.1322003030       -0.5800199194
 C          1.3540974554        4.1712857618       -1.3243671695
 H          1.0035710545        5.1261025415       -1.6882543795
 H          1.0966032363        3.3388286416       -1.9594774996
 H          3.1923695344        5.0557650236       -0.4308441793
 H          3.2922375063        3.2708121537       -0.7100593794
 H          1.0394183846        4.7618393613        0.7816880305
