  62
        -98.93558966
 C         -2.1080011047       -0.9580300011        0.2748893660
 C         -2.9880674987       -0.3162470603        1.1788218208
 C         -3.8043515984        0.7963543016        0.6555255737
 C         -3.6220679914        1.1839364201       -0.6202442121
 C         -4.3545941675        2.2559163120       -1.3823518010
 C         -5.7646865256        1.8186546687       -1.8122496324
 C         -6.5653403570        1.0823180769       -0.7411706838
 H         -7.4906642263        0.7287335677       -1.2034231885
 H         -6.0075357599        0.2008517883       -0.4196707525
 C         -6.9429907792        1.9179349272        0.4795829677
 H         -7.5770603244        1.2949724050        1.1155717860
 H         -7.5375072908        2.7752639868        0.1562311572
 C         -5.7766060145        2.4289094991        1.3277594215
 H         -6.1949236548        2.7921954272        2.2710430353
 H         -5.2929733425        3.2807391072        0.8570769256
 C         -4.7409684748        1.3696801948        1.6919302973
 H         -4.0948860166        1.7713175272        2.4822137314
 H         -5.2500055859        0.5120630435        2.1465524797
 H         -6.3148327002        2.7028509784       -2.1383610606
 H         -5.6625718165        1.1493648656       -2.6700008402
 H         -4.3928801257        3.1698435129       -0.7967015864
 H         -3.7646149872        2.4610753079       -2.2785842717
 O         -2.7116461912        0.5819103841       -1.4371601483
 C         -1.9358010459       -0.4910962031       -1.0287586168
 O         -1.1558795101       -0.9125307161       -1.9024684046
 O         -3.0954799353       -0.6577513871        2.3881064211
 C         -1.2790309746       -2.1172190895        0.7986158823
 C          0.1700109990       -1.9244927723        0.4275477249
 C          0.9047405234       -2.8313883990       -0.3235230703
 C          2.2273838954       -2.5700433603       -0.6370037420
 C          2.8453359755       -1.4100746872       -0.2085534541
 C          2.1178258554       -0.4924123204        0.5382855029
 C          0.7959772160       -0.7599420125        0.8563766155
 H          0.2268280992       -0.0406330148        1.4340016459
 N          2.7371817491        0.6871745310        0.9890507571
 S          3.6025024400        1.6092169030       -0.1164964489
 O          3.5955188968        2.9489199065        0.4318789629
 O          3.0912785761        1.4622398372       -1.4592493146
 C          5.2539679731        0.9512600095       -0.0104018593
 C          5.8932352017        0.5085475666       -1.1517146969
 C          7.1808659391        0.0056213156       -1.0461490693
 C          7.8029190825       -0.0441212689        0.1919039194
 C          7.1481526440        0.4076353468        1.3281651629
 C          5.8614832976        0.9123640574        1.2294393652
 H          5.3191545825        1.2763938069        2.0859440654
 H          7.6352967719        0.3677379673        2.2890785770
 H          8.8040691280       -0.4373232037        0.2715347812
 H          7.6911873481       -0.3453338078       -1.9286822678
 H          5.3668662071        0.5614124319       -2.0916548315
 H          2.1285221018        1.2776237287        1.5376541521
 H          3.8726591180       -1.2012375361       -0.4582642438
 H          2.7847747310       -3.2801186069       -1.2287166716
 H          0.4353707926       -3.7302748472       -0.6874076436
 H         -1.3592179506       -2.0316545156        1.8957286270
 C         -1.8216144575       -3.4907855129        0.4344569549
 C         -3.2829100586       -3.6989097092        0.1747243446
 C         -2.2972527016       -3.8283752557       -0.9456344522
 H         -2.0894775535       -4.8158672178       -1.3312581153
 H         -2.2567866807       -3.0511281430       -1.6923872742
 H         -3.7503187375       -4.5934477990        0.5580869536
 H         -3.9234553183       -2.8290008314        0.1936481334
 H         -1.3163462359       -4.2811362740        0.9809925479
