  62
        -98.94585934
 C         -2.1976562485       -0.1023305214       -0.1090014031
 C         -2.0980316882       -1.1720501185       -1.0364582137
 C         -1.5300477680       -2.4250313819       -0.5264604085
 C         -1.1689985010       -2.5165948498        0.7656945999
 C         -0.6023543024       -3.7320700265        1.4474604076
 C          0.9151337254       -3.8927432171        1.2825110511
 C          1.3739492933       -4.3185842669       -0.1122763714
 H          2.4241546944       -4.6054841593       -0.0318404475
 H          0.8173947421       -5.2023754765       -0.4262977798
 C          1.2461008288       -3.2237245404       -1.1803490123
 H          1.1452812683       -2.2461907657       -0.7023919888
 H          2.1618388405       -3.1777515908       -1.7750459005
 C          0.0872362818       -3.4151953775       -2.1594926555
 H          0.2628173317       -4.3064821710       -2.7668390807
 H          0.0713836712       -2.5495131138       -2.8277867697
 C         -1.2933138981       -3.5384987513       -1.5003445404
 H         -2.0532727119       -3.4665156891       -2.2826364202
 H         -1.3886835197       -4.5058701418       -1.0068927550
 H          1.2412382156       -4.6526548522        1.9961414554
 H          1.4020025608       -2.9516077232        1.5483659813
 H         -1.1058718562       -4.6258269888        1.0779399711
 H         -0.8234687839       -3.6232666292        2.5113736671
 O         -1.3039253139       -1.4796274191        1.6311974630
 C         -1.7544325631       -0.2316234405        1.2084656025
 O         -1.7094162949        0.6371414370        2.0973719243
 O         -2.4647395972       -1.0806964806       -2.2388212369
 C         -2.6488627279        1.2479875232       -0.6416376023
 C         -1.5739650981        2.2609132908       -0.3353672604
 C         -1.7417656732        3.3401584394        0.5208575114
 C         -0.6789121370        4.1857215540        0.7883469236
 C          0.5649036954        3.9659733506        0.2252723827
 C          0.7431549507        2.8894565781       -0.6379064040
 C         -0.3304420836        2.0616248954       -0.9242635456
 H         -0.1914673621        1.2308785147       -1.6018793599
 N          1.9915885068        2.6514677765       -1.2394038718
 S          2.6538928101        1.1216504178       -1.3443803072
 O          3.9771759767        1.3427925358       -1.8848494678
 O          1.7896436339        0.2561216087       -2.1034309657
 C          2.7963441130        0.5423015545        0.3353881362
 C          4.0257442665        0.5861146592        0.9637162251
 C          4.1206806513        0.1696731610        2.2817938205
 C          2.9878017217       -0.2667078825        2.9524870261
 C          1.7592754115       -0.2987342345        2.3105891968
 C          1.6625311090        0.1034999427        0.9880725538
 H          0.7192409928        0.0845529298        0.4641692622
 H          0.8668715473       -0.6215991405        2.8246214275
 H          3.0586335156       -0.5848556081        3.9806303588
 H          5.0746110024        0.1905475672        2.7836466957
 H          4.8785115476        0.9344283442        0.4038386602
 H          2.7053919943        3.3214218625       -0.9914112336
 H          1.3940827177        4.6197739067        0.4493954253
 H         -0.8172458996        5.0199774965        1.4591321088
 H         -2.6954893489        3.5027385387        0.9950976860
 H         -2.6725913306        1.1067366641       -1.7357417928
 C         -4.0469121418        1.6862260386       -0.2394966139
 C         -5.1239182868        0.6723464823        0.0045840239
 C         -4.6079992199        1.5050015539        1.1376990623
 H         -5.2480780726        2.2824146459        1.5292626051
 H         -3.9820431456        1.0390955814        1.8808950884
 H         -6.1149667964        0.8700361713       -0.3755204817
 H         -4.8410088936       -0.3699913673       -0.0327566515
 H         -4.3472981465        2.5863545589       -0.7681606386
