  62
        -98.94621901
 C          2.8356471826        0.8741007118        0.2088596769
 C          2.4834961304        0.1518958448       -0.9587455551
 C          2.8394659716       -1.2722719683       -0.9514132549
 C          3.5438484627       -1.7818054993        0.0754516501
 C          3.9470950355       -3.2212621358        0.2433445926
 C          2.8618080229       -4.0801183238        0.9087951620
 C          1.6423763548       -4.3821029406        0.0354517752
 H          1.9730124583       -4.8067727669       -0.9128754991
 H          1.0581804122       -5.1473769070        0.5502531725
 C          0.7361809958       -3.1717722284       -0.2358620184
 H          0.9613186428       -2.3771381534        0.4814011285
 H         -0.3121009630       -3.4423432415       -0.0806532204
 C          0.8493387029       -2.6031865269       -1.6508037619
 H          0.1654912465       -1.7525696516       -1.7289886439
 H          0.5212198869       -3.3560163152       -2.3711682546
 C          2.2624798617       -2.1355577596       -2.0312409684
 H          2.9037927470       -2.9951821206       -2.2239919847
 H          2.1917968164       -1.5353050747       -2.9411852367
 H          3.3218531913       -5.0296421738        1.1912533635
 H          2.5370217571       -3.5823629307        1.8258257587
 H          4.2112692479       -3.6477670872       -0.7238434703
 H          4.8316299448       -3.2280483231        0.8836486806
 O          3.9752795692       -1.0201549266        1.1167089505
 C          3.5697697313        0.3016019188        1.2451059135
 O          3.9227617824        0.8474377376        2.3106947428
 O          1.8800743449        0.6595893291       -1.9380460697
 C          2.3075375367        2.2847228276        0.3952923132
 C          0.8032771743        2.2609305452        0.2427593829
 C          0.0877640099        3.2344924250       -0.4413343959
 C         -1.2840006432        3.1205919205       -0.5928524467
 C         -1.9707783923        2.0383609605       -0.0742052673
 C         -1.2665647628        1.0645990458        0.6214792642
 C          0.1015269531        1.1945967839        0.7917845509
 H          0.6430974663        0.4282285837        1.3351482148
 N         -1.9502024542       -0.0526196508        1.1416849828
 S         -2.8005075987       -0.9899048573        0.0288795791
 O         -2.8165456480       -2.3242989688        0.5881913267
 O         -2.2665752933       -0.8526557654       -1.3045765506
 C         -4.4445196543       -0.3103293804        0.1015596037
 C         -5.0275418850        0.2056144450       -1.0389095804
 C         -6.3073254838        0.7325840812       -0.9574469663
 C         -6.9770339150        0.7339279575        0.2565192594
 C         -6.3780312615        0.2097958461        1.3925642673
 C         -5.0995815558       -0.3191897873        1.3175147635
 H         -4.5990967149       -0.7397954047        2.1736863845
 H         -6.9021800168        0.2125409381        2.3346323874
 H         -7.9720222476        1.1456708440        0.3175872019
 H         -6.7745528984        1.1397693479       -1.8396809472
 H         -4.4653598675        0.1869583679       -1.9590991853
 H         -1.3579349373       -0.6516469076        1.6998109608
 H         -3.0350228537        1.9337662433       -0.2099587742
 H         -1.8244778676        3.8814408512       -1.1349851187
 H          0.6072221534        4.0749509212       -0.8718577325
 H          2.5516287312        2.5735659102        1.4283413711
 C          2.9915919399        3.2445614304       -0.5555153931
 C          3.1965501362        4.6778437322       -0.1689787274
 C          4.3639454100        3.7397547050       -0.2146711040
 H          5.0854463959        3.8477886810       -1.0104456816
 H          4.7915194610        3.4041852734        0.7191670564
 H          3.1203612740        5.4341729328       -0.9355671756
 H          2.8386162661        4.9915709947        0.7999655605
 H          2.7842668905        3.0147607866       -1.5943718209
