  62
        -98.93733507
 C         -2.2843574493        0.4707378444        0.2890672922
 C         -3.5250275164        0.9256691422        0.8050670014
 C         -4.7109885512        0.6533977573       -0.0168467497
 C         -4.5572577161        0.0469000739       -1.2076569950
 C         -5.6814308316       -0.3491714796       -2.1194405274
 C         -6.1588517867       -1.7776648787       -1.8217361875
 C         -6.4261084953       -2.0446601759       -0.3403277597
 H         -5.4827131033       -1.9888938917        0.2080393935
 H         -6.7851390667       -3.0725757165       -0.2548937093
 C         -7.4436446823       -1.0923481546        0.3034194382
 H         -8.1369969858       -1.6789095172        0.9097647371
 H         -8.0297064321       -0.5975458639       -0.4718257090
 C         -6.8297518289       -0.0367022918        1.2248845639
 H         -6.1683364652       -0.5210520029        1.9479898335
 H         -7.6389637849        0.4354452399        1.7882101449
 C         -6.0449211862        1.0812776338        0.5271502144
 H         -5.8301459644        1.8524327926        1.2727560213
 H         -6.6575812599        1.5249802923       -0.2600951025
 H         -5.3914784270       -2.4768703152       -2.1620414543
 H         -7.0678266352       -1.9645071407       -2.3963424242
 H         -6.5043347099        0.3527036181       -1.9990185845
 H         -5.3220686493       -0.3024310243       -3.1486848018
 O         -3.3465602632       -0.3174376694       -1.6992518670
 C         -2.1789566957       -0.1226243538       -0.9698450935
 O         -1.1520974250       -0.5093378290       -1.5572118372
 H          1.4371546768       -0.3536911160        0.5164999492
 C          1.2702407641        0.6259834624        0.1009170052
 C          0.0689501526        1.2853013944        0.3006127339
 C         -0.1114668995        2.5354088810       -0.2870169212
 C          0.8852515397        3.1069998580       -1.0528370655
 C          2.0925479104        2.4544744791       -1.2321890322
 C          2.2796737500        1.2041993783       -0.6563690668
 N          3.4824684180        0.5034598633       -0.8376030635
 S          4.0585192910       -0.4381282122        0.4380817700
 O          3.4683374787       -1.7509094883        0.3650753749
 O          3.8901438489        0.2676974024        1.6889886094
 C          5.7890527669       -0.5345491500        0.0152628520
 C          6.1951242749       -1.4691285273       -0.9186857354
 C          7.5344143148       -1.5262222085       -1.2702861737
 C          8.4402407485       -0.6530086646       -0.6862755171
 C          8.0182899412        0.2783722397        0.2505225472
 C          6.6800346656        0.3417296897        0.6058366586
 H          6.3076526444        1.0424502634        1.3357207784
 H          8.7252356745        0.9534808915        0.7051907340
 H          9.4821052245       -0.7008393282       -0.9610396206
 H          7.8664702809       -2.2508968642       -1.9961207533
 H          5.4567508163       -2.1324682532       -1.3384219092
 H          4.2113307530        1.0664303185       -1.2536569486
 H          2.8762599276        2.9031758432       -1.8236591808
 H          0.7273210097        4.0743798681       -1.5057442723
 H         -1.0518585934        3.0494449687       -0.1384503422
 C         -1.0470420500        0.7098673058        1.1343625530
 H         -1.3567344714        1.4832898513        1.8583827556
 C         -0.6126303462       -0.4963610565        1.9533494184
 C         -1.6110200238       -1.4970259249        2.4507703485
 C         -0.6184151709       -1.8881808379        1.3993776459
 H          0.1943133255       -2.5471435134        1.6702805790
 H         -0.9619025922       -2.0216037755        0.3853535763
 H         -2.6411413382       -1.3630978420        2.1536808464
 H         -1.4904934725       -1.8917462708        3.4483297496
 H          0.2018354706       -0.2513905946        2.6301372588
 O         -3.6337031916        1.5358143984        1.9023209482
