  62
        -98.94088105
 C         -1.8428137753       -0.7398568451        0.5492637529
 C         -2.3056025484        0.0162407626       -0.5564713318
 C         -3.4358153584        0.9163156690       -0.2815898192
 C         -3.9136075745        1.0378377181        0.9691157859
 C         -5.0473401224        1.9256708530        1.4049071966
 C         -6.4372536640        1.3094683732        1.1944234046
 C         -6.9035933362        1.2364644932       -0.2601860593
 H         -6.8039519386        2.2192962647       -0.7220289084
 H         -7.9673588101        0.9911903426       -0.2429717299
 C         -6.1698703030        0.1894999173       -1.1100138711
 H         -6.8967263050       -0.3811078038       -1.6923357536
 H         -5.6593462239       -0.5194223543       -0.4540324154
 C         -5.1560354435        0.7705270243       -2.0958346063
 H         -5.6752387419        1.3785928894       -2.8398807989
 H         -4.6719712734       -0.0584527673       -2.6185503188
 C         -4.0606849255        1.6254006259       -1.4448063558
 H         -4.4694344351        2.5859591420       -1.1315889444
 H         -3.2763448722        1.8029934415       -2.1849798902
 H         -7.1513419980        1.9197359737        1.7521742256
 H         -6.4452578006        0.3077390132        1.6304763603
 H         -4.9878389351        2.8804567157        0.8814849889
 H         -4.9084603623        2.1058020281        2.4732409478
 O         -3.3820001541        0.3594772243        2.0213435413
 C         -2.3512721324       -0.5485041596        1.8362973135
 O         -1.9660620233       -1.1024464213        2.8860144294
 O         -1.8148383610       -0.0446801263       -1.7119695172
 C         -0.7099867551       -1.7426800025        0.4114102271
 C          0.4234691997       -1.1321911502       -0.3763442459
 C          0.9377625559       -1.6771924784       -1.5445451593
 C          1.9779192943       -1.0514733168       -2.2103917110
 C          2.5302849971        0.1194757135       -1.7267175540
 C          2.0298839765        0.6675405354       -0.5518616922
 C          0.9941784649        0.0354088620        0.1175557762
 H          0.6006676497        0.4666314495        1.0306116085
 N          2.5898076261        1.8528678816       -0.0455573173
 S          4.2565940819        1.9917939815       -0.0277087065
 O          4.5484925002        2.9011025377        1.0586040146
 O          4.7257307741        2.3976116742       -1.3291634467
 C          4.8596741746        0.3548035955        0.3470817411
 C          5.6535515208       -0.3139859092       -0.5620027142
 C          6.0815352266       -1.5973064256       -0.2614386704
 C          5.7069758325       -2.1875199761        0.9353814578
 C          4.9119977827       -1.5009335650        1.8406812330
 C          4.4826847303       -0.2173250624        1.5460473240
 H          3.8679735271        0.3446582395        2.2311850664
 H          4.6217099000       -1.9609073875        2.7717252716
 H          6.0361536674       -3.1882605200        1.1665198379
 H          6.7013675197       -2.1326903370       -0.9623137462
 H          5.9192922070        0.1816930020       -1.4813879067
 H          2.1838230186        2.1626537971        0.8245308689
 H          3.3259441600        0.6282512466       -2.2463167206
 H          2.3590472004       -1.4784651040       -3.1253517879
 H          0.5059798423       -2.5762096193       -1.9516935846
 H         -0.3500171858       -1.9042676241        1.4410888799
 C         -1.1466070097       -3.1038324167       -0.1100772096
 C         -2.5398600797       -3.6064136363        0.1209173522
 C         -2.0891080162       -3.2580557130       -1.2641759707
 H         -1.9161441074       -4.0638903281       -1.9625591841
 H         -2.4704075868       -2.3593767997       -1.7217140007
 H         -2.6744097400       -4.6471570494        0.3749408601
 H         -3.2355445631       -2.9443261206        0.6164475537
 H         -0.3540552664       -3.8409036758       -0.0268275872
