  62
        -98.94136482
 C         -2.2291886672       -0.6881694896       -0.3359449438
 C         -3.4577202903       -0.9346918696        0.3270976681
 C         -4.2075064802        0.2501079858        0.7623753021
 C         -3.6821944985        1.4715096152        0.5557456236
 C         -4.3560545168        2.7652391419        0.9083429785
 C         -5.1948992063        3.2931694733       -0.2641127177
 C         -6.1255659195        2.2473299180       -0.8781187927
 H         -5.5232157070        1.4654097003       -1.3460913138
 H         -6.6877163830        2.7400875521       -1.6742593790
 C         -7.1031857987        1.6057672731        0.1163588989
 H         -8.0943193422        1.5696230507       -0.3406012801
 H         -7.1814454055        2.2248301810        1.0107666523
 C         -6.7471486018        0.1740921869        0.5211271825
 H         -6.5764947381       -0.4281669713       -0.3746754594
 H         -7.6054998986       -0.2546181838        1.0450854803
 C         -5.5291383685        0.0242295752        1.4414663370
 H         -5.5080909454       -1.0090121599        1.8001731191
 H         -5.6361119576        0.6842415844        2.3047819831
 H         -4.5158232855        3.6472232324       -1.0431517341
 H         -5.7815883831        4.1437345053        0.0875856213
 H         -4.9875699017        2.6131186474        1.7815344213
 H         -3.5851748863        3.4981923166        1.1524957443
 O         -2.4834378604        1.6683932834       -0.0484792910
 C         -1.7291015701        0.6016135990       -0.5163123413
 O         -0.6632849979        0.9399951138       -1.0662525946
 H          1.1240474041       -0.9955605944       -1.3477063223
 C          1.0396004319       -1.4377646843       -0.3678273423
 C         -0.1737803407       -1.9609095636        0.0487709780
 C         -0.2637474303       -2.4986651038        1.3299873558
 C          0.8341134122       -2.5096543120        2.1692825916
 C          2.0428218463       -1.9782976865        1.7531836504
 C          2.1392560230       -1.4320715159        0.4810758551
 N          3.3627067163       -0.8849098063        0.0435464611
 S          4.1586179629        0.1429468065        1.1238411620
 O          4.8818667423       -0.6685506689        2.0719212186
 O          3.2316814350        1.0965017886        1.6926331988
 C          5.3050708525        0.9576081054        0.0299531038
 C          6.5627337634        0.4160752053       -0.1546701780
 C          7.4373954738        1.0390446092       -1.0308304275
 C          7.0413195487        2.1846292131       -1.7046495511
 C          5.7752145908        2.7162288634       -1.5090773298
 C          4.8950950137        2.0978322603       -0.6350859094
 H          3.9039911340        2.4810463268       -0.4475883725
 H          5.4696351899        3.6077643591       -2.0328892299
 H          7.7232021538        2.6687502728       -2.3857757733
 H          8.4229550318        0.6304188484       -1.1849187411
 H          6.8269243905       -0.4711665489        0.3964831438
 H          3.2543169544       -0.4237123948       -0.8506064382
 H          2.9025127245       -1.9613029436        2.4035146832
 H          0.7496018217       -2.9292007649        3.1607315656
 H         -1.2135020147       -2.8921988852        1.6652261513
 C         -1.4163793409       -1.8852229859       -0.8030341906
 H         -2.0375407453       -2.7628645300       -0.5791735248
 C         -1.1447978122       -1.8457238211       -2.2918689827
 C         -0.6584568325       -3.0844160856       -2.9812651887
 C         -2.0527760350       -2.5913280351       -3.2215255203
 H         -2.2864224759       -2.1477061646       -4.1777818789
 H         -2.8728244882       -3.1416742302       -2.7841686078
 H         -0.5302873559       -3.9699012386       -2.3773975379
 H          0.0666168167       -2.9834218599       -3.7741625817
 H         -0.7657144446       -0.8905134622       -2.6342047544
 O         -3.9058773644       -2.0924653551        0.5421109040
