  62
        -98.94646481
 C         -1.5812208836       -1.0710390465        0.0420934081
 C         -2.6533223060       -0.8128123633        0.9335958708
 C         -3.3660626570        0.4529604725        0.7323780500
 C         -2.9511524757        1.3074621991       -0.2201938623
 C         -3.5473311426        2.6559963870       -0.5197975303
 C         -4.7708352180        2.6051500739       -1.4453154453
 C         -6.0475228508        2.0553166133       -0.8079929728
 H         -6.2467299471        2.5876200517        0.1226119011
 H         -6.8685399664        2.2785289877       -1.4923128190
 C         -6.0233432071        0.5432723207       -0.5437537960
 H         -5.2235438987        0.0836472389       -1.1290276752
 H         -6.9621122230        0.0993219879       -0.8826939441
 C         -5.8452322076        0.1589816593        0.9252376149
 H         -6.7101893321        0.4975303723        1.4999238541
 H         -5.8037119378       -0.9312837420        0.9913447970
 C         -4.5751913841        0.7229228669        1.5757175824
 H         -4.6868813639        1.7923629908        1.7524830119
 H         -4.4298409908        0.2220433497        2.5358950376
 H         -4.5186603350        2.0103072247       -2.3263291512
 H         -4.9688254985        3.6260665910       -1.7800065740
 H         -3.8155546582        3.1537783362        0.4123487112
 H         -2.7688086891        3.2402284790       -1.0149806506
 O         -1.8953085899        1.0393447592       -1.0321215617
 C         -1.2035750702       -0.1619294891       -0.9459013590
 O         -0.2962650782       -0.2801826690       -1.7912372437
 H          1.4980495609       -2.0614300650       -1.2530361158
 C          1.6376385212       -1.8266474764       -0.2101510694
 C          0.5864939521       -1.9750352342        0.6804874650
 C          0.7940326366       -1.6446334154        2.0173340080
 C          2.0213047060       -1.1771836962        2.4483403940
 C          3.0608256918       -1.0024057004        1.5506351763
 C          2.8578550782       -1.3184342450        0.2143347495
 N          3.8869223693       -1.0859333789       -0.7164546547
 S          4.6549999953        0.3985092245       -0.6225712226
 O          5.0663842171        0.7056387893       -1.9752127355
 O          5.7227631246        0.3201753355        0.3451759355
 C          3.4341067794        1.5747397225       -0.0563240009
 C          2.2071699267        1.6342570392       -0.6864595622
 C          1.2705295595        2.5527604527       -0.2402957223
 C          1.5734132760        3.3974150394        0.8158506228
 C          2.8131958868        3.3306951437        1.4327589941
 C          3.7518693674        2.4101084076        0.9961626214
 H          4.7233027995        2.3168425275        1.4541943991
 H          3.0482585903        3.9887620837        2.2537527379
 H          0.8379168742        4.1080952927        1.1588970154
 H          0.3045080622        2.5863642352       -0.7196820997
 H          1.9664237559        0.9657436172       -1.4979859447
 H          3.6137422433       -1.2824044575       -1.6688674370
 H          4.0194099016       -0.6196089856        1.8621466441
 H          2.1686372391       -0.9322551568        3.4890205639
 H         -0.0281160774       -1.7444744711        2.7120187464
 C         -0.7967105389       -2.3612510342        0.2215463708
 H         -1.2976477295       -2.8972300084        1.0384100347
 C         -0.8237456991       -3.2266884816       -1.0199142889
 C         -0.4073183768       -4.6630551851       -0.9229567347
 C         -1.8492560626       -4.3131295451       -1.1318923466
 H         -2.2927708667       -4.5048043061       -2.0975821786
 H         -2.5323545290       -4.4430868979       -0.3053620179
 H          0.1407504122       -5.0992277725       -1.7441486159
 H         -0.1099372582       -5.0298774762        0.0477184414
 H         -0.5794389391       -2.6879459211       -1.9274234100
 O         -2.9947871900       -1.6019556573        1.8533736328
