  62
        -98.93646680
 C         -2.3604273655       -1.2951872286       -0.0800039908
 C         -3.1260569860       -0.5549284783        0.8503699195
 C         -3.9702470818        0.5086913633        0.2902391429
 C         -3.9780551272        0.7203653673       -1.0384747425
 C         -4.8158679621        1.7255388912       -1.7839305015
 C         -4.5119791029        3.2097371380       -1.5015781962
 C         -5.3913505663        3.8400883664       -0.4144782453
 H         -6.3239156004        3.2785544392       -0.3479408614
 H         -5.6569313671        4.8535496412       -0.7219077860
 C         -4.7598622119        3.9479475103        0.9769374303
 H         -5.5567844785        4.1688726500        1.6902086638
 H         -4.0650389634        4.7909627457        0.9897383072
 C         -3.9927576453        2.7166657335        1.4595719330
 H         -3.7684403278        2.8480372711        2.5202856272
 H         -3.0290135092        2.6609161551        0.9467422155
 C         -4.7274143720        1.3776644553        1.2520456299
 H         -5.7434746561        1.5470465229        0.8991026281
 H         -4.7766365087        0.8304674744        2.1956981865
 H         -4.6845359298        3.7500601011       -2.4336324259
 H         -3.4570343754        3.3245336032       -1.2534026744
 H         -5.8694349403        1.5260158556       -1.5760323939
 H         -4.6396940919        1.5212430430       -2.8418941352
 O         -3.2207709313       -0.0126592033       -1.8995910364
 C         -2.3822497556       -1.0209887480       -1.4477255479
 O         -1.7281440314       -1.5848898040       -2.3438567930
 O         -3.1048856221       -0.7716838532        2.0931618075
 C         -1.4521891710       -2.4001895383        0.4260053536
 C         -0.0118311305       -2.0867361336        0.1002335819
 C          0.8767046830       -3.0217937780       -0.4134364855
 C          2.1896840527       -2.6702575532       -0.6769766613
 C          2.6455975154       -1.3880629175       -0.4344940565
 C          1.7696038875       -0.4477344491        0.0926231271
 C          0.4575858008       -0.8047753477        0.3609937957
 H         -0.2226784461       -0.0705301392        0.7766789017
 N          2.2199419295        0.8628553465        0.3345971271
 S          3.6111393484        1.0591075091        1.2565115676
 O          3.7820037892       -0.0280942945        2.1923062445
 O          3.5027263498        2.3852942530        1.8245198838
 C          4.9269385156        1.0470732203        0.0577756071
 C          5.9662982858        0.1464638514        0.1846053841
 C          6.9846872476        0.1624369782       -0.7558537401
 C          6.9457472261        1.0737988511       -1.7999623676
 C          5.8958392747        1.9733846291       -1.9114165693
 C          4.8754619587        1.9637284250       -0.9739914885
 H          4.0442325237        2.6473394636       -1.0223820159
 H          5.8687232013        2.6806112001       -2.7247118416
 H          7.7382900729        1.0836370184       -2.5314495215
 H          7.8018171195       -0.5357237951       -0.6709544198
 H          5.9506704039       -0.5475579310        1.0097580644
 H          1.4941007559        1.4843129886        0.6611356884
 H          3.6646494519       -1.1091774022       -0.6469468003
 H          2.8669181841       -3.4061875810       -1.0826100711
 H          0.5406919393       -4.0259775769       -0.6123679234
 H         -1.5599669207       -2.3876912857        1.5215462346
 C         -1.9139514065       -3.7460563465       -0.0916891663
 C         -1.6732078627       -4.9882873746        0.7114630776
 C         -3.0580592405       -4.4286265291        0.5941065066
 H         -3.7808540628       -4.9562902015       -0.0097618243
 H         -3.4863198438       -3.9339948293        1.4538991027
 H         -1.4471475407       -5.9050716664        0.1881998607
 H         -1.1624607095       -4.8814909025        1.6566163306
 H         -1.8655524155       -3.8140116322       -1.1725689071
