  62
        -98.94824006
 C          1.2011314897        1.2066928081       -0.0493148589
 C          1.9285418280        0.6379838901        1.0232311133
 C          2.5464380531       -0.6660160447        0.7575191464
 C          2.3838912515       -1.2499119338       -0.4435907390
 C          2.9230802303       -2.5931564227       -0.8551934941
 C          4.3793076209       -2.5622027297       -1.3393202736
 C          5.4256163238       -2.3551694798       -0.2436614437
 H          5.2617842238       -3.0790987397        0.5552656337
 H          6.3999719702       -2.5727117017       -0.6855589464
 C          5.4561546453       -0.9369692498        0.3430565007
 H          6.4905128103       -0.5927299875        0.4110547099
 H          4.9341462691       -0.2524587731       -0.3293718039
 C          4.8470655524       -0.8155002219        1.7400534518
 H          5.4415214682       -1.3925550363        2.4519508435
 H          4.8863109159        0.2342998598        2.0420848235
 C          3.3877486557       -1.2801558384        1.8347273850
 H          2.9825894948       -0.9560451734        2.7970528420
 H          3.3337911409       -2.3680159857        1.7865460169
 H          4.5801156828       -3.5190430223       -1.8265365545
 H          4.4806587884       -1.7771635218       -2.0919836467
 H          2.8273638217       -3.2941261603       -0.0251978693
 H          2.2949344143       -2.9436530824       -1.6768901545
 O          1.6664656430       -0.6760856812       -1.4453930735
 C          1.0561085397        0.5617090007       -1.2767147824
 O          0.4276664236        0.9600053189       -2.2740136067
 O          2.0519342264        1.1922963743        2.1491917203
 C          0.5168803958        2.5459934961        0.1532491404
 C         -0.9772765761        2.3830651197        0.0146010376
 C         -1.7608010916        3.1711446999       -0.8178786658
 C         -3.1276893058        2.9660414051       -0.8924301953
 C         -3.7378232009        1.9768762293       -0.1443498256
 C         -2.9646043001        1.1886574801        0.7016149416
 C         -1.5972882613        1.3992504206        0.7772073148
 H         -1.0060410583        0.7864992388        1.4428228154
 N         -3.5644295405        0.1959518189        1.4980143418
 S         -2.9125368702       -1.3410644903        1.5614138183
 O         -3.9479451895       -2.1418307895        2.1781577469
 O         -1.6384064195       -1.3203424624        2.2328135451
 C         -2.7160739125       -1.8187608058       -0.1430142550
 C         -1.4846686910       -1.6725503982       -0.7455736251
 C         -1.3543596029       -1.9755443992       -2.0911989990
 C         -2.4558451003       -2.4190352192       -2.8061289618
 C         -3.6866214703       -2.5700066637       -2.1843927468
 C         -3.8229150074       -2.2619959806       -0.8409402950
 H         -4.7586870744       -2.3728854032       -0.3174124638
 H         -4.5383861099       -2.9210733464       -2.7443554633
 H         -2.3505512549       -2.6488960780       -3.8546319445
 H         -0.3979768686       -1.8402899268       -2.5711608436
 H         -0.6507198832       -1.3249446848       -0.1555915937
 H         -4.5685589579        0.1436685802        1.3996241252
 H         -4.8034570317        1.8167524773       -0.2052922683
 H         -3.7247082618        3.5824766272       -1.5469287956
 H         -1.3019541618        3.9441326163       -1.4114968289
 H          0.7294398172        2.8251117485        1.1964208894
 C          1.1091296482        3.5960824174       -0.7625515152
 C          1.0710252466        5.0426343757       -0.3726705607
 C          2.3680176779        4.2928866389       -0.3446740669
 H          3.1101114798        4.5132404561       -1.0973642244
 H          2.7869181965        4.0273393348        0.6152792510
 H          0.9251316418        5.7819434326       -1.1455835163
 H          0.6110733099        5.2935584785        0.5711912099
 H          1.0037550538        3.3432089812       -1.8113381271
