  62
        -98.93880959
 C          2.5787916290        0.1478501414       -0.4574374203
 C          2.2562228685        0.8123726243        0.7487143753
 C          1.7299085489        2.1826287015        0.6238795432
 C          1.5791403594        2.7218527742       -0.5978135592
 C          1.1031419228        4.1021930583       -0.9823511652
 C         -0.0322891622        4.7333179894       -0.1707133990
 C         -1.1436543626        3.7634682775        0.2554493693
 H         -2.1094635109        4.1810316101       -0.0365385399
 H         -1.0343462381        2.8065299594       -0.2591587374
 C         -1.1719431276        3.5131986499        1.7643812512
 H         -2.1594957961        3.1335264454        2.0366123382
 H         -1.0261145997        4.4606264003        2.2888956488
 C         -0.1435890141        2.4985181946        2.2575883780
 H         -0.3715539103        1.5171541045        1.8310768031
 H         -0.2386772058        2.4132659571        3.3430541900
 C          1.3183848954        2.8328505919        1.9136943211
 H          1.4849998962        3.9073049484        1.8969190765
 H          1.9577540314        2.3936546155        2.6844362906
 H          0.3773404102        5.2207542366        0.7129244382
 H         -0.4570729698        5.5213437749       -0.7957909107
 H          1.9693862661        4.7715843187       -0.9627664923
 H          0.7938732025        4.0110897722       -2.0270430234
 O          1.9190212127        2.0474620972       -1.7361175988
 C          2.3878492435        0.7471302425       -1.6987199499
 O          2.6052929906        0.2434658089       -2.8226702446
 H          0.3953646414       -1.0048248686       -0.6917630401
 C          0.6165138158       -1.7961828960        0.0091775239
 C          1.9420603391       -2.1200767373        0.2692833328
 C          2.2076895479       -3.1664023225        1.1418199321
 C          1.1656233282       -3.8453941038        1.7520827780
 C         -0.1500374136       -3.4874085804        1.5254414115
 C         -0.4258443791       -2.4386542124        0.6524369550
 N         -1.7451320992       -1.9960799687        0.4597369407
 S         -2.1349417042       -0.8686609689       -0.7219661722
 O         -1.9207559293       -1.4242077550       -2.0427870066
 O         -1.4742626214        0.3765697862       -0.4301013162
 C         -3.8818184343       -0.7033169553       -0.4114395526
 C         -4.2983897248        0.2075781356        0.5403888187
 C         -5.6531868457        0.3289994091        0.8049568261
 C         -6.5640024325       -0.4594584140        0.1174713745
 C         -6.1316223334       -1.3678961616       -0.8369835641
 C         -4.7776960542       -1.4938446368       -1.1059489671
 H         -4.3967783840       -2.1759392010       -1.8490369604
 H         -6.8424487659       -1.9761805513       -1.3726417541
 H         -7.6180572199       -0.3620934484        0.3240211864
 H         -5.9927822656        1.0373748296        1.5432207315
 H         -3.5519563024        0.8035132490        1.0400701640
 H         -2.4475021591       -2.7127535727        0.5685972212
 H         -0.9570609352       -4.0010182471        2.0242822023
 H          1.3841284321       -4.6591853583        2.4268917527
 H          3.2278590311       -3.4455170013        1.3497689030
 C          3.0126557466       -1.3063821720       -0.4208736544
 H          3.0733747587       -1.6339985741       -1.4702246770
 C          4.3784565057       -1.4471805564        0.2182280435
 C          5.3109053602       -2.5361722504       -0.2176588541
 C          5.5923692030       -1.1133836697       -0.5939049812
 H          6.4112754231       -0.6014353320       -0.1115341282
 H          5.4313811051       -0.8110597182       -1.6189218093
 H          4.9710456287       -3.2052587518       -0.9939127177
 H          5.9426285858       -3.0016022093        0.5237836090
 H          4.3773771077       -1.1564216996        1.2622797434
 O          2.4068529390        0.2891122766        1.8839494174
