  62
        -98.94387221
 C          1.8084524522        1.1787816786        0.3353562174
 C          2.0362463628        0.2179453091       -0.6788589116
 C          3.4396440646        0.0310677837       -1.0775726150
 C          4.3973831389        0.7730567148       -0.4921944744
 C          5.8681691851        0.6431855041       -0.7610470958
 C          6.5213628479       -0.3567126365        0.2034951521
 C          5.7796435718       -1.6894350242        0.3074149058
 H          6.3465842030       -2.3250345451        0.9910688417
 H          4.8012867832       -1.5200988299        0.7631564047
 C          5.5927086583       -2.4178606024       -1.0308041431
 H          5.8348435122       -3.4736614233       -0.8921036405
 H          6.2891442955       -2.0202990858       -1.7699395362
 C          4.1707017645       -2.3578531418       -1.5922145046
 H          3.4576858433       -2.6683515963       -0.8237063940
 H          4.0979813493       -3.0766969681       -2.4129293209
 C          3.7251849699       -0.9950893571       -2.1375572970
 H          4.4661971652       -0.6224607365       -2.8478685844
 H          2.7814099869       -1.1446918001       -2.6706994241
 H          7.5468736058       -0.5342145266       -0.1252514755
 H          6.5561182390        0.0938408232        1.1980636473
 H          6.0173220517        0.3223699316       -1.7900863480
 H          6.3308108739        1.6219177400       -0.6237184824
 O          4.1354371610        1.7033058849        0.4611565245
 C          2.8422501556        1.9194222267        0.9083135617
 O          2.7442801353        2.7807621771        1.8055537784
 H         -2.0497910553        0.2573397616        0.3017010162
 C         -1.4578919996       -0.2973786308        1.0095430086
 C         -0.1985143009        0.1520991620        1.3739639100
 C          0.5333722603       -0.5911290852        2.2973531406
 C          0.0240872244       -1.7598832561        2.8272501736
 C         -1.2268138595       -2.2141763230        2.4467735798
 C         -1.9698726155       -1.4778501605        1.5331157206
 N         -3.2600959607       -1.8888091715        1.1670546711
 S         -3.7724411552       -1.7868193550       -0.4249724170
 O         -4.9082342036       -2.6843008900       -0.4839575490
 O         -2.7061392996       -2.0545482512       -1.3594277156
 C         -4.3632344528       -0.1178700338       -0.6060161690
 C         -5.2468813554        0.3760334479        0.3333668524
 C         -5.7443554190        1.6592835147        0.1734871614
 C         -5.3591572580        2.4193665973       -0.9206365719
 C         -4.4733603997        1.9073483909       -1.8567588160
 C         -3.9684337218        0.6256459068       -1.7002005297
 H         -3.2673888172        0.1915807561       -2.3960564319
 H         -4.1732443347        2.4991801561       -2.7072403063
 H         -5.7485375409        3.4175985693       -1.0448135204
 H         -6.4313655933        2.0627084841        0.8996662467
 H         -5.5274607732       -0.2472180745        1.1656662606
 H         -3.5592445729       -2.7569643771        1.5876021071
 H         -1.6245003929       -3.1312713386        2.8545512196
 H          0.6060470249       -2.3266745277        3.5386575211
 H          1.5126889909       -0.2371637178        2.5912278883
 C          0.3986377112        1.4310067476        0.8390703568
 H          0.5024010406        2.1318163838        1.6808213988
 C         -0.4398260799        2.0893119497       -0.2361979698
 C         -1.5547802407        3.0136414554        0.1482958728
 C         -0.2994171649        3.5644599479       -0.4567291317
 H         -0.3331512468        3.9390071057       -1.4686770796
 H          0.3906702929        4.0961075225        0.1824615024
 H         -1.7219335790        3.1783740527        1.2019045439
 H         -2.4553974305        3.0123130957       -0.4465479477
 H         -0.5670460811        1.4611369309       -1.1109375853
 O          1.1189310668       -0.4501496881       -1.2238671469
