  62
        -98.94004307
 C         -2.6636720690       -1.1260763310        0.2586406594
 C         -2.5475326974       -0.2881472843       -0.8784900958
 C         -3.3478711521        0.9467812951       -0.8479743670
 C         -4.1255704512        1.2092225887        0.2169968152
 C         -4.9343451921        2.4595431020        0.4032642856
 C         -4.1277347399        3.5315886822        1.1500326080
 C         -2.7257683064        3.7577789121        0.5831749856
 H         -2.2618160538        4.5519753806        1.1723864383
 H         -2.1286510379        2.8553533239        0.7361729188
 C         -2.6948538900        4.1387094389       -0.9037075992
 H         -1.9959500451        4.9669996265       -1.0374433986
 H         -3.6787325505        4.4914806491       -1.2149890220
 C         -2.2400072904        3.0161327069       -1.8384700552
 H         -1.2974195912        2.5958532427       -1.4778188099
 H         -2.0486165151        3.4510055413       -2.8228970387
 C         -3.2358709579        1.8655664800       -2.0318445078
 H         -4.2140801552        2.2657081826       -2.3053273525
 H         -2.8717459004        1.2478329077       -2.8578348070
 H         -4.0290341437        3.2255878399        2.1943747031
 H         -4.6882416400        4.4676984415        1.1225631116
 H         -5.8220890098        2.2127822365        0.9880006770
 H         -5.2445778992        2.8346882825       -0.5699034187
 O         -4.2152363868        0.3791697361        1.2884608975
 C         -3.4672144332       -0.7859032143        1.3490314241
 O         -3.5964475132       -1.4209442029        2.4155899315
 O         -1.8148834705       -0.5403238349       -1.8680963282
 C         -1.8416488796       -2.3968191958        0.3929932760
 C         -0.4125271590       -2.1209027309       -0.0104667231
 C          0.2809233815       -2.8549402879       -0.9625226808
 C          1.5915401398       -2.5355125484       -1.2735099071
 C          2.2355090036       -1.4821797396       -0.6519489955
 C          1.5539618429       -0.7447475741        0.3078545552
 C          0.2476082978       -1.0777988371        0.6289451120
 H         -0.2834471290       -0.5028760781        1.3795937447
 N          2.1859092292        0.3459803051        0.9286501810
 S          3.7409545744        0.1538526372        1.5263345724
 O          3.9841543700       -1.2072025754        1.9454668846
 O          3.8792187368        1.1726914557        2.5444239107
 C          4.7866716968        0.5669454021        0.1462074747
 C          5.7830907185       -0.3043563981       -0.2479397564
 C          6.5922960027        0.0435884502       -1.3184459272
 C          6.3922806906        1.2503084562       -1.9711167042
 C          5.3888031443        2.1155017400       -1.5608386716
 C          4.5774164600        1.7744342000       -0.4906387420
 H          3.7883337910        2.4190011734       -0.1405666888
 H          5.2353433969        3.0526689699       -2.0713237067
 H          7.0217616302        1.5185408350       -2.8048263676
 H          7.3729505226       -0.6274327197       -1.6389335874
 H          5.8970815969       -1.2346892589        0.2853587828
 H          1.6031369780        0.8339165618        1.5927592994
 H          3.2519214087       -1.2249916627       -0.9013708762
 H          2.1164851763       -3.1104980155       -2.0210686940
 H         -0.2098978809       -3.6630737101       -1.4789217272
 H         -1.8428429239       -2.6211815871        1.4733819098
 C         -2.4438202141       -3.6114727592       -0.2975508401
 C         -3.9177848465       -3.7037330290       -0.5545743739
 C         -2.9651975342       -3.5578856710       -1.7009906075
 H         -2.8018956238       -4.4131063140       -2.3404753514
 H         -2.9147005435       -2.6110338091       -2.2140336429
 H         -4.4044432819       -4.6557443080       -0.4036461463
 H         -4.5284094883       -2.8547832494       -0.2824000281
 H         -1.9548733690       -4.5319357162        0.0069586722
