  62
        -98.94340947
 C         -1.9720450508       -0.8616771018        0.0362070993
 C         -2.2398259518        0.1025450480        1.0349851382
 C         -2.4331305442        1.4798579837        0.5659824589
 C         -2.3096280641        1.7495960788       -0.7466423777
 C         -2.5106592268        3.1020246642       -1.3658806566
 C         -3.9681364507        3.3065756876       -1.8024394302
 C         -4.9904230907        2.9540144410       -0.7220567527
 H         -5.9811998893        3.1638363390       -1.1305043625
 H         -4.9430917319        1.8806438865       -0.5250504208
 C         -4.8082648365        3.7184935810        0.5964856582
 H         -4.1853285079        4.5982639691        0.4317640061
 H         -5.7847527066        4.0700693693        0.9358092572
 C         -4.2154237167        2.8862960753        1.7350313541
 H         -4.3305887646        3.4496696175        2.6648296457
 H         -4.7805140733        1.9570923274        1.8428980678
 C         -2.7291541463        2.5308575282        1.5988566185
 H         -2.3961100393        2.1121351533        2.5535513515
 H         -2.1477355099        3.4348566875        1.4036958494
 H         -4.0953044112        4.3486444567       -2.1010361647
 H         -4.1589037087        2.6762174850       -2.6738400381
 H         -2.2218298482        3.8679081192       -0.6484830767
 H         -1.8609815986        3.1756146851       -2.2396903400
 O         -2.0322574884        0.8007569144       -1.6762957488
 C         -1.8463477727       -0.5232601289       -1.3111322396
 O         -1.5873325960       -1.2871077376       -2.2611369544
 O         -2.3101877927       -0.1773239528        2.2646555032
 C         -1.7169341870       -2.2981222512        0.4484127960
 C         -0.3217662402       -2.7249028512        0.0571540587
 C         -0.0089501148       -4.0263022960       -0.3151768727
 C          1.2923209715       -4.3663351378       -0.6437818831
 C          2.3022076189       -3.4232978934       -0.6172255962
 C          1.9981737338       -2.1152332893       -0.2516484676
 C          0.7009486655       -1.7861601827        0.1019765041
 H          0.4812871040       -0.7723999527        0.4044025931
 N          2.9914288781       -1.1231981155       -0.2772750945
 S          2.7526090405        0.3831600184        0.4242957780
 O          2.4868567603        0.2520114419        1.8413783112
 O          1.7798380921        1.1157418653       -0.3480800113
 C          4.3726061966        1.0849098545        0.1748905896
 C          5.2898722987        1.0713315987        1.2085048107
 C          6.5540375888        1.5966672572        0.9904992490
 C          6.8785788999        2.1217087887       -0.2511892064
 C          5.9470068962        2.1297888167       -1.2789275453
 C          4.6813199656        1.6068760767       -1.0670913205
 H          3.9208275132        1.5992011733       -1.8308089020
 H          6.2011277450        2.5414393684       -2.2423785170
 H          7.8625122833        2.5302934199       -0.4186785912
 H          7.2788017687        1.5949683929        1.7884906972
 H          4.9886526970        0.6617683254        2.1592007742
 H          3.9293833059       -1.4738555357       -0.1476855951
 H          3.3130332935       -3.6875000527       -0.8862790330
 H          1.5219156208       -5.3817188735       -0.9291698612
 H         -0.7848975000       -4.7735503889       -0.3499509617
 H         -1.7768635688       -2.3017789067        1.5483648612
 C         -2.7939498194       -3.2117312586       -0.1017774415
 C         -3.2531541271       -4.4064738689        0.6781184351
 C         -4.1438545889       -3.2088369603        0.5490748913
 H         -5.0196047925       -3.2777766197       -0.0784760710
 H         -4.2734965696       -2.5710523905        1.4116021411
 H         -3.5214983812       -5.3019007465        0.1379978789
 H         -2.7888974672       -4.5878533936        1.6358274144
 H         -2.7590395132       -3.2847485944       -1.1830070596
