  62
        -98.93352933
 C         -1.7695687543       -0.9544575110        0.4530565673
 C         -2.2829932796       -0.1226695197       -0.5723011588
 C         -3.4574849769        0.6928184877       -0.2128455151
 C         -3.9262465531        0.6595351288        1.0468143220
 C         -5.1579391903        1.3635469190        1.5407870179
 C         -6.4175885094        0.5941544499        1.0941089069
 C         -7.3035785714        1.3532295092        0.1060886927
 H         -8.0276413156        0.6417418219       -0.2966079245
 H         -7.8617048827        2.1203975842        0.6469286409
 C         -6.5761775164        2.0360887171       -1.0563285196
 H         -6.1414144708        2.9770643736       -0.7156232666
 H         -7.3352717611        2.2951549455       -1.7975085180
 C         -5.4805774448        1.2096342668       -1.7422535342
 H         -5.5337518298        1.4005477923       -2.8160028055
 H         -5.6582122976        0.1432708597       -1.6005613989
 C         -4.0461213347        1.5520720262       -1.2973074025
 H         -3.3738179718        1.4238808526       -2.1511413116
 H         -3.9971147561        2.6029722937       -0.9984435897
 H         -6.1013786246       -0.3512701385        0.6481824816
 H         -7.0193077371        0.3424311855        1.9687440948
 H         -5.0989968372        1.3970756911        2.6289782083
 H         -5.1766189953        2.3828904406        1.1614014652
 O         -3.3577137727       -0.0946189191        2.0237331834
 C         -2.2719165862       -0.9121542550        1.7555226672
 O         -1.8413449797       -1.5319210922        2.7489270015
 H          0.6319801870        0.3179525270        1.0587514716
 C          1.0333130702        0.0057330874        0.1017003631
 C          0.5099563413       -1.1273698048       -0.5106473571
 C          1.0323348208       -1.5188001676       -1.7354267879
 C          2.0347756660       -0.7780365360       -2.3380264049
 C          2.5417986320        0.3569408306       -1.7338640240
 C          2.0326017068        0.7517123480       -0.5027149831
 N          2.5493401336        1.8979780558        0.1260186633
 S          4.2116460566        2.0837315472        0.1682242421
 O          4.4724544544        2.8933389026        1.3380244761
 O          4.6729386422        2.6248732759       -1.0858191781
 C          4.8593915580        0.4360926011        0.3902816381
 C          5.6545021985       -0.1322547212       -0.5836892843
 C          6.1147728282       -1.4267001705       -0.4017396974
 C          5.7704364100       -2.1275897913        0.7433348177
 C          4.9735012175       -1.5412752797        1.7149678897
 C          4.5117537964       -0.2472837470        1.5388267355
 H          3.8950143268        0.2388732060        2.2779975339
 H          4.7067100364       -2.0872957130        2.6056931588
 H          6.1249934940       -3.1366806441        0.8820984780
 H          6.7362401654       -1.8844930469       -1.1542520136
 H          5.8966542669        0.4476486876       -1.4592080440
 H          2.1350967013        2.0963454454        1.0244155287
 H          3.3092579180        0.9533933424       -2.1998510760
 H          2.4221835267       -1.0857094940       -3.2971918656
 H          0.6352892838       -2.3873227764       -2.2338959851
 C         -0.5821739086       -1.8726363008        0.2169064556
 H         -0.2062626356       -2.1093642763        1.2261296700
 C         -0.9423630778       -3.2019740674       -0.4295824545
 C         -2.2963225592       -3.8132323186       -0.2292743877
 C         -1.8953582934       -3.3065566890       -1.5805409994
 H         -1.6849791872       -4.0299058696       -2.3548665836
 H         -2.3417331843       -2.3954346265       -1.9452283958
 H         -3.0221810216       -3.2472300514        0.3369608186
 H         -2.3600556228       -4.8799155569       -0.0747246503
 H         -0.1031366390       -3.8904816600       -0.4282638087
 O         -1.7985745017       -0.0551999637       -1.7305864014
