  62
        -98.94089858
 C         -1.0812483181       -1.5378597406        0.2620745109
 C         -1.3503568186       -0.5158837311       -0.6770555895
 C         -2.4001529194        0.4562824683       -0.3131678900
 C         -2.9867612095        0.3822190183        0.8952932499
 C         -4.0415043502        1.2469634278        1.5543825894
 C         -4.8260654508        2.2751687070        0.7440777590
 C         -5.8003356102        1.6744361060       -0.2699750210
 H         -6.6318401900        1.2220556456        0.2764491691
 H         -6.2064003107        2.4850094155       -0.8788415113
 C         -5.2213718393        0.6021746660       -1.1900096205
 H         -4.8768152288       -0.2456153435       -0.5944466602
 H         -6.0308538390        0.2376597053       -1.8283967405
 C         -4.0855009595        1.0641815865       -2.1001772805
 H         -3.8628358488        0.2463910764       -2.7910720502
 H         -4.4150641500        1.9201523161       -2.6924353408
 C         -2.7779960299        1.4397523676       -1.3833988004
 H         -1.9689844597        1.4179404879       -2.1188784303
 H         -2.8283955906        2.4487154677       -0.9848208208
 H         -4.1492235912        2.9717313073        0.2582439588
 H         -5.4143232513        2.8547044568        1.4607676087
 H         -4.7454716998        0.5525743375        2.0244011796
 H         -3.5326843007        1.7637740684        2.3757349293
 O         -2.6276250390       -0.5687603511        1.8065454203
 C         -1.7115648183       -1.5565842806        1.5094474708
 O         -1.5401467178       -2.3855013202        2.4252359711
 H          1.3227755617       -0.8589891496       -1.3976218490
 C          1.8950612719       -1.2646643089       -0.5764771088
 C          1.3153726624       -2.2176044890        0.2495162715
 C          2.0535924825       -2.7040817081        1.3219141118
 C          3.3398445222       -2.2496155171        1.5593555118
 C          3.9125561017       -1.2952983070        0.7370604916
 C          3.1768327515       -0.7974578079       -0.3301258387
 N          3.7335553509        0.2214819322       -1.1404218290
 S          3.8348969998        1.7170974425       -0.3936968395
 O          4.2511981093        2.6463030824       -1.4186208698
 O          4.7008454697        1.5983394735        0.7515372207
 C          2.1761465594        2.1066474416        0.1395702301
 C          1.6697574697        1.4878130616        1.2655320702
 C          0.3700555894        1.7680932009        1.6544634299
 C         -0.3926888811        2.6646026501        0.9228972295
 C          0.1288599087        3.2740577800       -0.2071425706
 C          1.4221930690        2.9862711508       -0.6101800003
 H          1.8666769288        3.4371346908       -1.4829948804
 H         -0.4682029217        3.9681953694       -0.7762984809
 H         -1.3992007413        2.8874764495        1.2391484893
 H         -0.0443339004        1.2794313409        2.5230742401
 H          2.2923777001        0.8078549022        1.8244041206
 H          3.2358777910        0.3334494915       -2.0139715791
 H          4.9011272314       -0.9080938263        0.9222380616
 H          3.9001395923       -2.6381556165        2.3962869320
 H          1.6045556429       -3.4307931982        1.9834405620
 C         -0.1022719273       -2.6764071800        0.0126740414
 H         -0.3375480569       -3.4366535799        0.7693125817
 C         -0.2626705766       -3.3024431406       -1.3589506384
 C          0.2373919344       -4.6963974104       -1.5830533078
 C         -1.2362484558       -4.4259329014       -1.5406667781
 H         -1.7990394157       -4.4765338721       -2.4606884982
 H         -1.7903084857       -4.7534180914       -0.6727039681
 H          0.6897291847       -4.9351058304       -2.5333200877
 H          0.6820673946       -5.2095926498       -0.7437640276
 H         -0.1664088870       -2.5957365608       -2.1721971686
 O         -0.7603934386       -0.3949871711       -1.7842427795
