  62
        -98.94549748
 C          1.8139836847        1.2306073432        0.3601410676
 C          1.6191890509        0.0261620425       -0.3593408006
 C          2.4223116506       -1.1215973675        0.0900455499
 C          3.2580288940       -0.9761324290        1.1344726924
 C          4.1771744038       -2.0437670401        1.6517990630
 C          5.5488499675       -1.9739871173        0.9656621529
 C          5.4744760892       -1.8928918991       -0.5591555274
 H          5.0155951766       -0.9432040683       -0.8434771911
 H          6.5003738622       -1.8783019550       -0.9334197052
 C          4.7051431261       -3.0454104704       -1.2198253047
 H          4.6192007441       -3.8804878835       -0.5234950945
 H          5.2765010876       -3.3993396805       -2.0805033288
 C          3.3144776143       -2.6677804218       -1.7330153541
 H          3.3859642788       -1.7754829290       -2.3597945791
 H          2.9522924495       -3.4840945121       -2.3635037459
 C          2.2527667335       -2.4155973757       -0.6552180480
 H          1.2823332935       -2.3461273834       -1.1550725874
 H          2.2220106012       -3.2599263796        0.0367651656
 H          6.1253535043       -2.8535989784        1.2579253212
 H          6.0733795045       -1.0877913345        1.3306483313
 H          4.3097060415       -1.8946274418        2.7248952274
 H          3.7249168454       -3.0195729017        1.4846753484
 O          3.3959174823        0.1895612755        1.8173048740
 C          2.6837468498        1.3202176472        1.4457680736
 O          2.9017066702        2.3227610532        2.1568493020
 H         -0.3229039203        0.9276477292        1.6618796206
 C         -0.9807003317        1.3902776644        0.9358700366
 C         -0.4418717517        2.2271416394       -0.0321970806
 C         -1.3047796355        2.8129600053       -0.9506578034
 C         -2.6651641616        2.5619580599       -0.8983088030
 C         -3.1947329904        1.7143350719        0.0569811006
 C         -2.3394326931        1.1176414456        0.9746593873
 N         -2.8573639266        0.2247162866        1.9273197006
 S         -3.9951897730       -0.8916196289        1.4146557592
 O         -5.3087541146       -0.2991529773        1.4850879949
 O         -3.7896380434       -2.0515431584        2.2553011416
 C         -3.6081964464       -1.2708437016       -0.2865718742
 C         -4.6127887202       -1.2090619793       -1.2315135265
 C         -4.3106119203       -1.4968819791       -2.5525411691
 C         -3.0121137477       -1.8291528751       -2.9060141204
 C         -2.0146060198       -1.8883842741       -1.9453155057
 C         -2.3134654783       -1.6135762153       -0.6212652257
 H         -1.5472667629       -1.6488675258        0.1371874914
 H         -0.9982843158       -2.1204756333       -2.2195623168
 H         -2.7718177990       -2.0404831743       -3.9359971813
 H         -5.0848556178       -1.4525334850       -3.3014422069
 H         -5.6044857167       -0.9302401373       -0.9137856756
 H         -2.1541036707       -0.2134303937        2.5035625867
 H         -4.2511977398        1.5057321570        0.1096508394
 H         -3.3222802042        3.0275260326       -1.6165106209
 H         -0.9106974250        3.4669161921       -1.7110078967
 C          1.0474708021        2.4778355735       -0.0377393979
 H          1.2688078793        3.2308888057        0.7334946106
 C          1.5554500723        2.9856382788       -1.3733280929
 C          1.6091627670        4.4551962360       -1.6606112245
 C          2.8758994538        3.6921225360       -1.4194512031
 H          3.5348601954        3.5036683822       -2.2537862342
 H          3.3917767422        3.8369093271       -0.4808760494
 H          1.2731332048        5.1303360602       -0.8880198984
 H          1.4010478041        4.7929004752       -2.6647447970
 H          1.3199780630        2.3111945598       -2.1886158858
 O          0.8159134523       -0.0896616745       -1.3189034294
