  62
        -98.93786207
 C         -2.3240934044       -1.2469203308       -0.0813407624
 C         -3.4280546679       -0.9753525847        0.7650699077
 C         -4.3867391903        0.0304535791        0.2860453983
 C         -4.1630948296        0.6360335464       -0.8944226340
 C         -4.9988197813        1.7378711724       -1.4814861662
 C         -4.6797952664        3.0737114871       -0.7801429356
 C         -5.8420491863        3.6563940536        0.0244926699
 H         -5.4407236308        4.4659339034        0.6378580825
 H         -6.5665514386        4.0938601285       -0.6656045381
 C         -6.5901983870        2.6702461159        0.9266605136
 H         -7.1945157843        3.2650156725        1.6148236093
 H         -7.2880470047        2.0825549716        0.3284579459
 C         -5.7141651265        1.7111814981        1.7428802942
 H         -6.1617015562        1.6017435716        2.7327504510
 H         -4.7182787978        2.1300149363        1.8892474159
 C         -5.5893519466        0.2955333162        1.1492874410
 H         -6.4981899829        0.0519652908        0.5922473034
 H         -5.5055864392       -0.4211291222        1.9714862462
 H         -4.3749067496        3.8113289110       -1.5241760368
 H         -3.8203874403        2.9193512504       -0.1239099929
 H         -4.7560885994        1.7988851181       -2.5425814568
 H         -6.0537778473        1.4935275786       -1.3782286669
 O         -3.0850915728        0.3594192388       -1.6727407543
 C         -2.1399349388       -0.5830904989       -1.2937037554
 O         -1.2168441051       -0.7321350458       -2.1180897439
 O         -3.6055268647       -1.5543497194        1.8698631253
 C         -1.3061239877       -2.2769755275        0.3817418156
 C         -0.0150253499       -1.5603998101        0.6889519614
 C          0.1256359821       -0.9081881631        1.9111758980
 C          1.2687929014       -0.1869606367        2.1984532135
 C          2.2918312240       -0.0912586540        1.2704518649
 C          2.1526537143       -0.7219951598        0.0422134914
 C          1.0130970139       -1.4663325958       -0.2352707655
 H          0.9144438884       -1.9414600621       -1.1982860440
 N          3.1791451491       -0.6240769166       -0.9124321910
 S          3.8638066360        0.8804205082       -1.2001050279
 O          2.9355014294        1.9574672607       -0.9433268378
 O          4.4031198983        0.8001423310       -2.5403875614
 C          5.2160022220        0.9493814620       -0.0411078742
 C          5.3624694584        2.0487407190        0.7819555429
 C          6.4280626930        2.0862778415        1.6680607234
 C          7.3243771037        1.0296810654        1.7144719166
 C          7.1651637429       -0.0660188308        0.8790699080
 C          6.1028631067       -0.1091578309       -0.0095693455
 H          5.9448193398       -0.9406600899       -0.6757444296
 H          7.8640321216       -0.8859825274        0.9181747462
 H          8.1515802104        1.0603265008        2.4059006342
 H          6.5530141200        2.9377542394        2.3176335167
 H          4.6368106129        2.8439433839        0.7155662151
 H          2.9589353593       -1.0859700875       -1.7833843333
 H          3.1806570971        0.4801586270        1.4823596215
 H          1.3658824269        0.3092886574        3.1521352205
 H         -0.6820993523       -0.9647116046        2.6275949881
 H         -1.7073616513       -2.6764219361        1.3227704605
 C         -1.1585707483       -3.4150353711       -0.6059985382
 C         -0.4745318165       -4.6763810065       -0.1732798535
 C         -1.9551315092       -4.6675225905       -0.4030599543
 H         -2.3466497121       -5.1739456774       -1.2726069566
 H         -2.6072793613       -4.7104397022        0.4568070658
 H          0.1530445791       -5.1929501998       -0.8832742682
 H         -0.1197599891       -4.7238474647        0.8450217011
 H         -1.0153765727       -3.0830785392       -1.6272418879
