  62
        -98.93982328
 C          1.5173259491        1.4823151407        0.0194235089
 C          1.4467476560        0.0847587308        0.2236487201
 C          2.7079497173       -0.5814554496        0.5974397872
 C          3.8199482442        0.1588197749        0.7456052615
 C          5.2066933596       -0.3341390128        1.0532716617
 C          6.0021121143       -0.5511141419       -0.2452774078
 C          5.8265514455       -1.9271279025       -0.8870395268
 H          6.3364030553       -2.6747785811       -0.2756665705
 H          6.3305138766       -1.8989215517       -1.8560436977
 C          4.3776033256       -2.3746264006       -1.0992708155
 H          4.3781681029       -3.1477069376       -1.8702840879
 H          3.7863909188       -1.5395570067       -1.4794000304
 C          3.7278657248       -2.9417414987        0.1717762873
 H          4.5055185766       -3.1307528621        0.9117710804
 H          3.2766750732       -3.9093115291       -0.0565533440
 C          2.6247758197       -2.0703432277        0.7931219353
 H          2.5668867964       -2.2787339377        1.8662632749
 H          1.6547820705       -2.3458016676        0.3678098658
 H          7.0641370979       -0.4102638225       -0.0339166952
 H          5.7049270841        0.2267383263       -0.9535403470
 H          5.1698965799       -1.2419868727        1.6480714579
 H          5.6967976483        0.4495421044        1.6346707812
 O          3.8341404013        1.5099905775        0.5715449045
 C          2.6959265499        2.2031870009        0.2011931251
 O          2.8563300335        3.4344348701        0.0750856383
 O          0.3874128277       -0.5793027999        0.0917782907
 C          0.2717950604        2.2382970550       -0.4075802069
 C         -0.8384828739        1.9719719768        0.5782227171
 C         -0.6280708906        2.2848263372        1.9193672946
 C         -1.6045226093        2.0377013953        2.8639679330
 C         -2.8074056465        1.4607497923        2.4942268511
 C         -3.0286869089        1.1506109379        1.1584293079
 C         -2.0523866597        1.4175991538        0.2077840360
 H         -2.2588446716        1.1780654637       -0.8209400689
 N         -4.2429956389        0.5817947804        0.7504562604
 S         -4.3002727824       -0.5233950497       -0.4991409789
 O         -4.1500040017        0.1491234271       -1.7657933082
 O         -5.5645769722       -1.2034356920       -0.3025431410
 C         -2.9679567749       -1.6804561064       -0.2443671680
 C         -2.8527821582       -2.2917561162        0.9876040809
 C         -1.8532275341       -3.2302950968        1.1776285711
 C         -0.9957821682       -3.5464644752        0.1360355494
 C         -1.1248211084       -2.9246177607       -1.0943886597
 C         -2.1187928848       -1.9801119272       -1.2877653689
 H         -2.2468775646       -1.4657288962       -2.2272345663
 H         -0.4483771935       -3.1627860631       -1.9000474666
 H         -0.2176296109       -4.2786365601        0.2873836651
 H         -1.7421528900       -3.7099068395        2.1371729924
 H         -3.5395678375       -2.0335474284        1.7776398964
 H         -4.8745104475        0.3354172306        1.4978623388
 H         -3.5686798516        1.2568469780        3.2317195156
 H         -1.4264905326        2.2867445068        3.8993274189
 H          0.3186701316        2.7211393197        2.2092238693
 H          0.5281183836        3.3065621965       -0.3620859121
 C         -0.0877092610        1.8819327956       -1.8346785107
 C         -0.9004700286        2.8285557247       -2.6639644687
 C          0.5547364597        2.6292838807       -2.9624421276
 H          0.8298294544        2.0841480702       -3.8529937813
 H          1.2439747398        3.4205767433       -2.7049157703
 H         -1.6314350671        2.4197428850       -3.3456183390
 H         -1.2015527871        3.7592192642       -2.2069714066
 H         -0.2504749123        0.8184564895       -1.9707665086
