  62
        -98.94261607
 C          1.4401588488        1.0822597436        0.0115091686
 C          2.7821876234        1.5396353040        0.0342547729
 C          3.7823401516        0.5930933681        0.5459638024
 C          3.3769649166       -0.6043968668        1.0054565789
 C          4.2909918750       -1.6881421979        1.4976877782
 C          4.6950740498       -2.6328668036        0.3570960800
 C          5.1912248307       -1.9116828985       -0.8962326168
 H          5.4759714956       -2.6771048635       -1.6214306523
 H          4.3648507782       -1.3470191989       -1.3341801401
 C          6.3781360068       -0.9677125113       -0.6578889885
 H          7.1162391156       -1.1265620253       -1.4469707801
 H          6.8605827092       -1.2103069627        0.2896894931
 C          6.0197792141        0.5195591744       -0.6767286190
 H          5.4556707818        0.7492224560       -1.5845867966
 H          6.9496535503        1.0931643838       -0.7175628988
 C          5.2205544864        1.0282137193        0.5297662535
 H          5.7232371102        0.7353288805        1.4538453933
 H          5.2025840426        2.1210043414        0.4798363791
 H          5.4736057615       -3.3041316290        0.7241026533
 H          3.8268941021       -3.2363087971        0.0828586044
 H          5.1767910262       -1.2364414998        1.9400811460
 H          3.7648837918       -2.2604290477        2.2633979401
 O          2.0751428491       -0.9818903436        1.0329161101
 C          1.0695906639       -0.1579086357        0.5361785627
 O         -0.0694433932       -0.6443268636        0.6339337084
 O          3.1274927298        2.6883905228       -0.3530180922
 C          0.3872425165        2.0190771501       -0.5532435664
 C         -0.8190935988        2.0526756630        0.3485315001
 C         -0.6932900479        2.6164457717        1.6155612487
 C         -1.7642632653        2.6400169546        2.4872500590
 C         -2.9813700524        2.0963421163        2.1159885294
 C         -3.1177979371        1.5343987061        0.8523211390
 C         -2.0433189011        1.5227811092       -0.0259492245
 H         -2.1732946001        1.0754796712       -0.9963765326
 N         -4.3460964894        0.9964771091        0.4467843805
 S         -4.4502152757       -0.2585983382       -0.6446808750
 O         -4.1406491536        0.2114442526       -1.9727089728
 O         -5.7976314464       -0.7600140599       -0.4621079355
 C         -3.2893802407       -1.5141867116       -0.1421499174
 C         -3.2870581912       -1.9306314240        1.1729709248
 C         -2.4199025664       -2.9403670536        1.5528049041
 C         -1.5785863401       -3.5178474946        0.6158457280
 C         -1.5969549916       -3.0916783984       -0.7013353550
 C         -2.4594316896       -2.0792235072       -1.0859901004
 H         -2.4961229773       -1.7104870444       -2.0988018697
 H         -0.9349942529       -3.5359402482       -1.4283510850
 H         -0.8972992325       -4.2987447120        0.9160505063
 H         -2.3957488015       -3.2691348139        2.5796576439
 H         -3.9534150320       -1.4664716576        1.8821927529
 H         -5.0491132929        0.9305818611        1.1672889490
 H         -3.8184690469        2.1067262657        2.7972277062
 H         -1.6510875009        3.0783868239        3.4673946768
 H          0.2623627515        3.0279824035        1.9111177773
 H          0.8611481188        3.0147215671       -0.5291578883
 C          0.0334655184        1.7405938796       -2.0065086635
 C          1.0597704841        1.2156826008       -2.9639410427
 C         -0.0906315670        0.3501788284       -2.5501829191
 H         -0.8737134968        0.1552734647       -3.2690968588
 H          0.0952740680       -0.4697904308       -1.8738447168
 H          1.0756621067        1.6101898895       -3.9688102128
 H          2.0389091037        0.9867265353       -2.5690042760
 H         -0.6605134807        2.4767705558       -2.4019297555
