  62
        -98.94665439
 C         -1.5061468920       -1.6247624201       -0.0837208076
 C         -1.5940950729       -0.5475989583       -1.0007397340
 C         -2.8731901449        0.1773278470       -1.0147569768
 C         -3.8826909050       -0.2129441670       -0.2173515671
 C         -5.2578684577        0.3954092559       -0.1578863528
 C         -5.3648626763        1.6243831652        0.7544852903
 C         -4.6975633329        2.8905943895        0.2164845039
 H         -5.0522915251        3.0862140426       -0.7960152957
 H         -5.0279759396        3.7207822872        0.8439739048
 C         -3.1631230914        2.8459215300        0.2256486706
 H         -2.7680491944        3.7791664204        0.6338014856
 H         -2.8215939418        2.0467653379        0.8882331290
 C         -2.5189557687        2.6522702259       -1.1470477307
 H         -1.4368048917        2.5975006004       -1.0003036681
 H         -2.7293060659        3.5209840212       -1.7758638256
 C         -2.9771945888        1.3896844918       -1.8895317759
 H         -3.9990439482        1.5154466868       -2.2485714951
 H         -2.3190307302        1.2401247339       -2.7489522027
 H         -6.4276692348        1.8318708295        0.8993245303
 H         -4.9381730790        1.3753691439        1.7289023541
 H         -5.5833747266        0.6600961673       -1.1644002216
 H         -5.9221112491       -0.3798155195        0.2305899036
 O         -3.7695151651       -1.2668172290        0.6344051203
 C         -2.5824317203       -1.9707430032        0.7391812243
 O         -2.6113770149       -2.8911621099        1.5823040211
 O         -0.6763417375       -0.1962057761       -1.7873001621
 C         -0.2652381165       -2.4811935248        0.0971265625
 C          0.7278567146       -1.8737132737        1.0621818599
 C          1.4491183151       -2.6938469439        1.9239802933
 C          2.3791074352       -2.1574056787        2.7947265069
 C          2.6169108108       -0.7949948777        2.8156121818
 C          1.8993243985        0.0354146931        1.9622632095
 C          0.9611212293       -0.5074428736        1.0940233633
 H          0.4028941203        0.1543147831        0.4525237934
 N          2.1055082155        1.4215014230        1.9810878952
 S          2.0783678321        2.3097214448        0.5615384806
 O          2.7833360012        3.5281395627        0.9050302614
 O          0.7255635177        2.4783362268        0.1017476551
 C          3.0586202149        1.3612764437       -0.5860730049
 C          2.4656981646        0.6369980189       -1.5987743611
 C          3.2744989428       -0.1219290806       -2.4323104409
 C          4.6463626861       -0.1448740884       -2.2407594185
 C          5.2260235359        0.5950621989       -1.2206730401
 C          4.4260321471        1.3539231319       -0.3837370591
 H          4.8371029260        1.9546026729        0.4115167672
 H          6.2942631805        0.5803233588       -1.0759774305
 H          5.2669151791       -0.7403663181       -2.8917810994
 H          2.8204012219       -0.6938813511       -3.2262599328
 H          1.3942421699        0.6625640190       -1.7244996296
 H          2.8499140397        1.7284281349        2.5897823143
 H          3.3413849622       -0.3724988106        3.4949060895
 H          2.9263584590       -2.8046612594        3.4627353740
 H          1.2635482586       -3.7572431179        1.9197879797
 H         -0.6189874362       -3.4228854505        0.5403665995
 C          0.4387563023       -2.8046329719       -1.2084960267
 C          1.1996410823       -4.0872617420       -1.3447733038
 C         -0.0932318250       -3.9006755853       -2.0798255020
 H         -0.0715232429       -3.7631692679       -3.1502735529
 H         -0.9623461234       -4.4385173065       -1.7286346499
 H          2.1186846533       -4.0807556049       -1.9099238550
 H          1.2052913769       -4.7640812205       -0.5042782220
 H          0.8365910699       -1.9284173310       -1.7017625489
