  62
        -98.94515794
 C         -2.5213744202       -0.3227642589        0.0406930399
 C         -2.1811704065       -1.3199148308       -0.9030206835
 C         -1.5282676313       -2.5205968355       -0.3685775062
 C         -1.3078688444       -2.6132286126        0.9556068426
 C         -0.6595317725       -3.7838131596        1.6370268751
 C          0.8543884019       -3.5930199155        1.7915614665
 C          1.5678928678       -3.1830431309        0.5030846933
 H          1.2701623779       -2.1653421407        0.2393466495
 H          2.6375696818       -3.1477439475        0.7250388192
 C          1.3256978844       -4.1123056106       -0.6939082844
 H          2.2779219360       -4.2751391127       -1.2030121123
 H          0.9708837481       -5.0836507092       -0.3459804079
 C          0.3543065814       -3.5571671471       -1.7379518851
 H          0.4632165887       -4.1460226221       -2.6531702729
 H          0.6312613231       -2.5255895254       -1.9751401262
 C         -1.1300775050       -3.5869659391       -1.3493698588
 H         -1.7166324497       -3.3951542925       -2.2529207727
 H         -1.3928218607       -4.5783579346       -0.9731629461
 H          1.2806524846       -4.5262504802        2.1659121603
 H          1.0310422580       -2.8107010088        2.5333116328
 H         -0.8653556776       -4.6857849653        1.0631322798
 H         -1.1037973913       -3.8857316157        2.6290751019
 O         -1.6525906842       -1.6375328833        1.8335983406
 C         -2.2151585915       -0.4490984214        1.3958614561
 O         -2.4193199335        0.3862226218        2.2978306185
 O         -2.4220710829       -1.2113555600       -2.1383255005
 C         -3.1120540954        0.9848488853       -0.4583272293
 C         -2.0964435131        2.0833634442       -0.2558102716
 C         -2.3946699742        3.3476055674        0.2322151995
 C         -1.3898229961        4.2861735301        0.4093626475
 C         -0.0702765982        3.9801127875        0.1317896283
 C          0.2354099685        2.7180783023       -0.3645726771
 C         -0.7751298011        1.8017564309       -0.5834288263
 H         -0.5241147205        0.8325616629       -0.9921309023
 N          1.5888109275        2.3386309117       -0.5813872577
 S          1.9496697519        0.7116353723       -0.3857702371
 O          1.7050247084       -0.0442555139       -1.5990630022
 O          1.3017044809        0.2559649655        0.8175380248
 C          3.7082575482        0.8192291975       -0.1119009230
 C          4.1436507876        1.4617332066        1.0315359398
 C          5.5052185374        1.5743779215        1.2605457416
 C          6.4051979586        1.0441746016        0.3473625366
 C          5.9537447760        0.3996443620       -0.7937805101
 C          4.5919544466        0.2856285624       -1.0289573602
 H          4.1935598122       -0.2093319460       -1.9001172880
 H          6.6548085718       -0.0139767673       -1.5007609847
 H          7.4648231029        1.1326543623        0.5280905310
 H          5.8596010748        2.0734666139        2.1480557066
 H          3.4056148668        1.8500387426        1.7142848203
 H          2.0064323421        2.7249473707       -1.4157572157
 H          0.7174828469        4.6966733727        0.2986771934
 H         -1.6392112456        5.2648207221        0.7903841185
 H         -3.4130565727        3.5969684153        0.4828837283
 H         -3.2507350041        0.8455196990       -1.5418908378
 C         -4.4556645397        1.2714194708        0.1752125392
 C         -5.4827931000        2.0719972257       -0.5670191306
 C         -5.6749136531        0.5982544194       -0.3778377526
 H         -6.4324936184        0.2581131766        0.3118196501
 H         -5.5379403036       -0.0509379251       -1.2305096762
 H         -6.1144920926        2.7448705541       -0.0071909543
 H         -5.2240496366        2.4249755540       -1.5538826907
 H         -4.3911259272        1.3859906420        1.2510073088
