  62
        -98.93942268
 C         -2.4072913585       -0.9206276529       -0.6542017601
 C         -3.6426740142       -0.8978115984        0.0467236557
 C         -4.4968244990        0.2761521546       -0.1675790733
 C         -4.0829777513        1.2420112378       -1.0074712441
 C         -4.8241112950        2.5174963078       -1.2823743405
 C         -4.3892204175        3.6320679741       -0.3205420477
 C         -4.3832025649        3.2123320887        1.1494768961
 H         -3.6122865345        2.4530118108        1.3013011900
 H         -4.0914687004        4.0863428864        1.7358454807
 C         -5.7277448917        2.6783418199        1.6630037145
 H         -5.9342031127        3.1280474540        2.6364750334
 H         -6.5294368835        2.9828438696        0.9892121061
 C         -5.7760459127        1.1612880288        1.8546800508
 H         -6.6789863701        0.9187668967        2.4213707074
 H         -4.9190377365        0.8399146197        2.4522311386
 C         -5.8063018038        0.3270747402        0.5678023939
 H         -6.0336732945       -0.7059882996        0.8465682210
 H         -6.6017751646        0.6891671330       -0.0867263507
 H         -5.0584364091        4.4838311956       -0.4546713234
 H         -3.3786882074        3.9475213140       -0.5900304962
 H         -5.8930503596        2.3371534532       -1.1865830117
 H         -4.6071567949        2.8276818284       -2.3058766193
 O         -2.9042902420        1.1807858966       -1.6737044586
 C         -2.0324745519        0.1136576861       -1.5116741257
 O         -0.9895470074        0.2243340994       -2.1875015054
 O         -4.0164805214       -1.8260924649        0.8123869152
 C         -1.5181423355       -2.1321100803       -0.4257561399
 C         -0.3910192205       -1.8066134336        0.5261019747
 C         -0.3734909249       -2.3412180837        1.8091563271
 C          0.6610432213       -2.0485611330        2.6807320378
 C          1.6941031884       -1.2136648682        2.2950302665
 C          1.6823454205       -0.6684739496        1.0173044431
 C          0.6501061189       -0.9737226746        0.1408344390
 H          0.6371198576       -0.5361611237       -0.8464715746
 N          2.7086012832        0.2142000276        0.6182895351
 S          4.2959598432       -0.3325214140        0.8104344075
 O          4.4631383654       -1.6211570665        0.1738292355
 O          4.6305048848       -0.2773389579        2.2112370866
 C          5.1975282626        0.9212485897       -0.0766987432
 C          5.5830112170        0.6838627788       -1.3820474626
 C          6.2635674975        1.6758706730       -2.0705307223
 C          6.5422177405        2.8822138292       -1.4459949085
 C          6.1479739562        3.1056291802       -0.1350418341
 C          5.4685849832        2.1175808744        0.5593779182
 H          5.1503065733        2.2428855614        1.5810272657
 H          6.3684891077        4.0443957117        0.3470399605
 H          7.0718686204        3.6523777040       -1.9841995976
 H          6.5730640432        1.5042044847       -3.0889363331
 H          5.3523634358       -0.2718560951       -1.8252370792
 H          2.5682383329        0.5207543433       -0.3361019509
 H          2.5094727123       -0.9840552333        2.9614373948
 H          0.6631900402       -2.4737250297        3.6732153368
 H         -1.1840537164       -2.9828741917        2.1237539344
 H         -2.1658282606       -2.8687655610        0.0684298318
 C         -0.9970041052       -2.7428641160       -1.7119521832
 C         -0.5108457029       -4.1599138681       -1.6965968791
 C         -1.7934655100       -3.8146005879       -2.3908073837
 H         -1.8188035671       -3.8312928918       -3.4700295004
 H         -2.7213871916       -4.1172125859       -1.9277989009
 H          0.3488517451       -4.4160694273       -2.2966793662
 H         -0.5682857938       -4.6971912805       -0.7619095272
 H         -0.4750668464       -2.0388527937       -2.3466147961
