  62
        -98.94041496
 C         -2.0327568641       -1.4413248590        0.4344224754
 C         -2.3494617659       -0.8386151784       -0.8077917495
 C         -3.1864066741        0.3711925397       -0.7399423060
 C         -3.5956785180        0.8327365329        0.4549166032
 C         -4.3865583313        2.0903682375        0.6673425503
 C         -3.4598938883        3.2946431740        0.8873687541
 C         -2.3470918859        3.4123079663       -0.1543544074
 H         -1.7674104529        4.3069801446        0.0835084318
 H         -1.6769789052        2.5548484198       -0.0577668320
 C         -2.8427568185        3.4969960622       -1.6046887842
 H         -2.2950834215        4.2906004674       -2.1175510439
 H         -3.8986264670        3.7692839732       -1.6216028830
 C         -2.6379993405        2.2174580221       -2.4178299911
 H         -1.5960391573        1.8957746197       -2.3378128673
 H         -2.8253840638        2.4492767873       -3.4698063223
 C         -3.5405606654        1.0352392157       -2.0415006419
 H         -4.5838036479        1.3571946638       -2.0382599028
 H         -3.4203668987        0.2686894521       -2.8128842914
 H         -4.0648956541        4.2029002039        0.8803245221
 H         -3.0002039901        3.2003684319        1.8738638263
 H         -5.0261323847        2.2629855127       -0.1960162190
 H         -5.0127087197        1.9579086386        1.5511171196
 O         -3.2817975364        0.2230801527        1.6254263641
 C         -2.4969221528       -0.9163990092        1.6453555277
 O         -2.2871415911       -1.3703933959        2.7869247757
 O         -1.9604665098       -1.2637918731       -1.9273168887
 C         -1.1760116454       -2.6929843688        0.5599940354
 C          0.2865752802       -2.3293380351        0.5526052030
 C          1.1237092784       -2.6826713232        1.6037682635
 C          2.4603675686       -2.3209449044        1.5917864735
 C          2.9871119123       -1.5988669123        0.5360129287
 C          2.1545953593       -1.2327570333       -0.5145882512
 C          0.8164167805       -1.5968898309       -0.5015170333
 H          0.1734010176       -1.3150753821       -1.3223447385
 N          2.6702417978       -0.4855295137       -1.5871619452
 S          3.6605505113        0.8122823165       -1.2288228849
 O          3.4851732871        1.7417642323       -2.3220809752
 O          5.0071091326        0.3436650695       -1.0136110552
 C          3.0234112416        1.5043999409        0.2886484672
 C          3.8490870202        1.6094798988        1.3893269290
 C          3.3395247144        2.1409149235        2.5631751755
 C          2.0173762389        2.5529284964        2.6163552083
 C          1.2003851940        2.4427374139        1.5014871719
 C          1.7052682530        1.9144934326        0.3247757192
 H          1.0922714149        1.8202928241       -0.5582550857
 H          0.1711095005        2.7619055766        1.5468598574
 H          1.6171309767        2.9623634078        3.5303429513
 H          3.9722000867        2.2290798913        3.4315382927
 H          4.8696593445        1.2733139646        1.3042087495
 H          1.9784778356       -0.2439397659       -2.2816289576
 H          4.0271350931       -1.3167020632        0.5063306737
 H          3.0996794966       -2.6038495926        2.4138102330
 H          0.7172178524       -3.2331836295        2.4393837336
 H         -1.4118486659       -3.0992920067        1.5554597324
 C         -1.5401058700       -3.7621696304       -0.4630954347
 C         -0.6104814302       -4.2520083895       -1.5291955858
 C         -0.9290509412       -5.1283706314       -0.3578344689
 H         -1.5583640033       -5.9924762852       -0.5077587335
 H         -0.1560879170       -5.2672699672        0.3832519533
 H         -1.0382034737       -4.4916620260       -2.4910190129
 H          0.3779527124       -3.8244600016       -1.5900561364
 H         -2.5910977850       -3.7231370625       -0.7308237498
