  62
        -98.93953004
 C          1.4475394715        1.3515284810       -0.5731505985
 C          2.7496787142        1.3591789640       -0.0117951492
 C          3.6627718463        0.2775896130       -0.4151670253
 C          3.2236383573       -0.6509629132       -1.2819204543
 C          3.9579143431       -1.8681879528       -1.7724263047
 C          3.6229681589       -3.0895029392       -0.8992634079
 C          4.5095343974       -3.2612322592        0.3336679578
 H          4.0887835253       -4.0791570075        0.9232305193
 H          5.5097190309       -3.5648857098        0.0169635330
 C          4.6330054608       -2.0245455406        1.2277607592
 H          3.6522501992       -1.5584683856        1.3450020046
 H          4.9508279946       -2.3579838504        2.2177245214
 C          5.6454033686       -0.9965136042        0.7006606462
 H          6.3413537267       -0.7334705844        1.4999125207
 H          6.2399662215       -1.4561655900       -0.0886486127
 C          5.0391225893        0.3191915435        0.1908805590
 H          4.9528796552        1.0260571378        1.0220635702
 H          5.7254508282        0.7706795794       -0.5333530784
 H          2.5763105580       -3.0069586521       -0.5917706536
 H          3.7126529467       -3.9917839871       -1.5080338663
 H          3.6028901545       -2.0588198818       -2.7873477585
 H          5.0284824690       -1.6876994539       -1.8027092959
 O          1.9719790411       -0.6182038949       -1.8093619862
 C          1.0493836742        0.3570833754       -1.4663199675
 O         -0.0467642549        0.2210512431       -2.0428731613
 O          3.1364030180        2.2441495780        0.7997108881
 C          0.5097286618        2.4522229383       -0.1030445880
 C         -0.2495784112        1.9760882979        1.1137645360
 C         -0.0725717759        2.5937379124        2.3456398178
 C         -0.7334212170        2.1239606627        3.4668222026
 C         -1.5697383119        1.0272256153        3.3793134458
 C         -1.7565026995        0.4018804212        2.1492651948
 C         -1.1121117380        0.8914687442        1.0228541748
 H         -1.2433146499        0.3958970252        0.0756997312
 N         -2.6123797973       -0.6990494412        2.0495807793
 S         -2.4908725291       -1.8790284981        0.8696475728
 O         -3.1218645582       -3.0343563338        1.4767315671
 O         -1.1303414630       -2.0643926069        0.4255198721
 C         -3.5598268012       -1.2726180611       -0.4181666288
 C         -4.9132040180       -1.2481125603       -0.1360238684
 C         -5.7921438929       -0.7710733834       -1.0931039054
 C         -5.3054120361       -0.3272528988       -2.3141032437
 C         -3.9465916139       -0.3620712461       -2.5822949681
 C         -3.0593534644       -0.8397309983       -1.6280554472
 H         -1.9959774488       -0.8620221636       -1.8122338339
 H         -3.5618099896       -0.0169036314       -3.5288838712
 H         -5.9878171497        0.0467440073       -3.0611619038
 H         -6.8499246056       -0.7448065981       -0.8864651299
 H         -5.2480812413       -1.6135118909        0.8205244337
 H         -2.9526034696       -1.0640539901        2.9260410205
 H         -2.0726094434        0.6481243076        4.2559629096
 H         -0.5857275553        2.6080259466        4.4203243018
 H          0.6066325020        3.4296526072        2.4246294368
 H          1.1669067989        3.2723185554        0.2180123932
 C         -0.4318633718        2.9823052045       -1.1638812124
 C         -1.0120599719        4.3534267222       -0.9935878780
 C          0.0185972344        4.1013963287       -2.0520421664
 H         -0.2901197617        4.0916862397       -3.0863731420
 H          1.0142741032        4.4917412177       -1.8985731270
 H         -2.0331959345        4.5202009205       -1.2994454576
 H         -0.7149566000        4.9180638338       -0.1228203572
 H         -1.0602662940        2.2216350755       -1.6066964462
