  62
        -98.93463417
 C          2.6263870969        0.9502611335        0.7241652742
 C          2.9947044259       -0.2857498841        1.3159039528
 C          4.3596411893       -0.7583174977        1.0551529754
 C          5.1785146714       -0.0054606391        0.2986824536
 C          6.5795467679       -0.3807898273       -0.0868625780
 C          6.6047159164       -1.1436397754       -1.4185944396
 C          5.6033322690       -2.2966098650       -1.4883097699
 H          4.5891667208       -1.8905846740       -1.4659359900
 H          5.7327184390       -2.7816084320       -2.4583420261
 C          5.7563405576       -3.3383311967       -0.3711697682
 H          5.6967969665       -4.3355171101       -0.8123287063
 H          6.7407822621       -3.2461478276        0.0890606110
 C          4.6806665924       -3.2667643319        0.7143915761
 H          3.6911976336       -3.2616132821        0.2498672199
 H          4.7516565320       -4.1721555399        1.3231042972
 C          4.7718960666       -2.0676623053        1.6665985124
 H          5.7814381787       -1.9999970229        2.0772906284
 H          4.0754990620       -2.2446947976        2.4914254158
 H          6.3753230330       -0.4421013367       -2.2240177067
 H          7.6145446516       -1.5259636212       -1.5784898624
 H          7.1639153515        0.5348816352       -0.1919251101
 H          7.0161253753       -0.9905827323        0.7017785883
 O          4.7988437848        1.1776485475       -0.2426772160
 C          3.5146599041        1.6832665656       -0.0646605738
 O          3.3230911740        2.7642702560       -0.6491096844
 O          2.2132191473       -0.9581885304        2.0419756983
 C          1.2138547936        1.4330457689        0.9985773076
 C          0.2514149139        0.9559821826       -0.0599794430
 C          0.5339109428        1.0986804796       -1.4143703150
 C         -0.3727518944        0.6710335459       -2.3678074126
 C         -1.5732187319        0.0935349784       -1.9939340110
 C         -1.8655057048       -0.0546366066       -0.6447130127
 C         -0.9542136678        0.3784434973        0.3110574869
 H         -1.1786563321        0.2495739225        1.3614040834
 N         -3.0776893590       -0.6533090003       -0.2582067395
 S         -4.4706853438       -0.1468073569       -1.0742867024
 O         -4.5711164994       -0.8867096849       -2.3069220421
 O         -4.4682399339        1.2932944609       -1.1991955064
 C         -5.7426950125       -0.6736336872        0.0563429352
 C         -6.1832056938       -1.9824502667        0.0035504578
 C         -7.1536070172       -2.3981019953        0.9013270727
 C         -7.6631944556       -1.5042832351        1.8315935181
 C         -7.2119563204       -0.1934893725        1.8712014009
 C         -6.2410610787        0.2289022091        0.9768425205
 H         -5.8685289613        1.2408091703        0.9650327550
 H         -7.6123491674        0.4998253914        2.5932700372
 H         -8.4193068399       -1.8301846083        2.5283048453
 H         -7.5095065779       -3.4152921717        0.8722189770
 H         -5.7650273876       -2.6387991578       -0.7415858206
 H         -3.2127750594       -0.6302332284        0.7435901520
 H         -2.2895396636       -0.2368182192       -2.7289447445
 H         -0.1429694655        0.7907073450       -3.4162861781
 H          1.4651718776        1.5572854167       -1.7117668351
 H          0.9318596879        0.9379523085        1.9417666059
 C          1.1240318462        2.9341518272        1.2363267058
 C          0.5300222951        3.8970598161        0.2577382176
 C         -0.2012221581        3.5759829832        1.5244598734
 H         -0.2557598453        4.3266558817        2.2981269836
 H         -1.0835029474        2.9587461478        1.4418892488
 H          1.0044199602        4.8608130487        0.1547966812
 H          0.1382879844        3.5081562393       -0.6690538187
 H          1.9725160166        3.2990142077        1.8065898747
