  62
        -98.94081095
 C         -2.5959626887       -1.3212697898        0.2180699065
 C         -2.3902759468       -0.2344485368       -0.6695178055
 C         -3.4882203770        0.7445214890       -0.7504490758
 C         -4.6009294732        0.5614346709       -0.0187109704
 C         -5.7656001855        1.5062036460        0.0306330587
 C         -5.5974906803        2.5330821428        1.1592915375
 C         -4.2296427769        3.2158504990        1.1756171950
 H         -3.4615914121        2.4754721425        1.4117630962
 H         -4.2376379387        3.9408598738        1.9923363692
 C         -3.8587492952        3.9263971195       -0.1335795720
 H         -3.4408021179        4.9064344066        0.1058663329
 H         -4.7553364459        4.0937264673       -0.7316703133
 C         -2.8156038876        3.1946213646       -0.9806183098
 H         -1.9476181494        2.9449051439       -0.3639508721
 H         -2.4711131227        3.8781617699       -1.7616484020
 C         -3.2980482085        1.9144714423       -1.6744001171
 H         -2.5233113667        1.6137300850       -2.3862113144
 H         -4.2147859655        2.1204932182       -2.2310087251
 H         -5.7359492724        2.0226101463        2.1150934491
 H         -6.3806296325        3.2867236692        1.0595331577
 H         -6.6718865970        0.9258540996        0.2115491141
 H         -5.8559936964        2.0144246296       -0.9273426550
 O         -4.7685726476       -0.4986133767        0.8116246588
 C         -3.7695080922       -1.4433741493        0.9699723769
 O         -4.0419953553       -2.3356724035        1.7972485762
 O         -1.3598448060       -0.0734391579       -1.3741116831
 C         -1.5401552146       -2.3876421823        0.4680268824
 C         -0.2178206710       -1.7243780532        0.7591697936
 C          0.0157628004       -1.1954440404        2.0247509968
 C          1.1976648877       -0.5358826184        2.3056744340
 C          2.1630983298       -0.3772990681        1.3267220943
 C          1.9282757582       -0.8809811766        0.0547140151
 C          0.7533224854       -1.5703643949       -0.2163697263
 H          0.5745278339       -1.9489381174       -1.2106213856
 N          2.8927909788       -0.7104853918       -0.9516736909
 S          3.6524325653        0.7772531147       -1.1067365127
 O          2.8261018273        1.8684272836       -0.6464224949
 O          4.0873752390        0.8343078128       -2.4857786641
 C          5.0880477058        0.6171425238       -0.0624100571
 C          5.9114743222       -0.4759194267       -0.2492771586
 C          7.0387516122       -0.6088869135        0.5453551320
 C          7.3246049234        0.3494285611        1.5064174055
 C          6.4904002815        1.4429884234        1.6796875289
 C          5.3605694051        1.5811221186        0.8882284396
 H          4.6807843628        2.4122813285        0.9908962104
 H          6.7140276999        2.1876294528        2.4267466550
 H          8.2026935581        0.2436731135        2.1237612497
 H          7.6898146948       -1.4580357962        0.4135182447
 H          5.6559289671       -1.1960357116       -1.0084061899
 H          2.5939286592       -1.0525555674       -1.8537582900
 H          3.0792230460        0.1513322462        1.5335109400
 H          1.3681120322       -0.1353450363        3.2935582524
 H         -0.7477184738       -1.2998204025        2.7838398893
 H         -1.8711041148       -2.8998897531        1.3853170458
 C         -1.4433751580       -3.4569019571       -0.6102328174
 C         -2.6875983027       -4.0226200966       -1.2257900483
 C         -1.7463861055       -3.2041249859       -2.0550334382
 H         -1.1457008168       -3.7118722289       -2.7961209314
 H         -2.0451489356       -2.2097100613       -2.3460995848
 H         -2.7403714764       -5.0864469014       -1.4010970069
 H         -3.6288551563       -3.5794161837       -0.9340348079
 H         -0.6453710363       -4.1628266219       -0.3998835010
