  62
        -98.94172828
 C          2.7534156774       -0.0030220821        0.1453175202
 C          2.0317897966        0.7637977603        1.0920164954
 C          1.8037702094        2.1735069289        0.7434996211
 C          2.2694197847        2.6568298420       -0.4208859860
 C          2.0633497420        4.0581585965       -0.9165310702
 C          0.8065576325        4.1736835984       -1.7898068997
 C         -0.4502930243        3.5587075100       -1.1727847073
 H         -1.2770300330        3.7644096571       -1.8573278995
 H         -0.3452064185        2.4714041996       -1.1299393675
 C         -0.8040709346        4.0863590453        0.2245698245
 H         -1.8802054952        4.2691851851        0.2624925107
 H         -0.3059121790        5.0408927034        0.4004840188
 C         -0.4725290864        3.1183223934        1.3621522774
 H         -0.8387905368        2.1213788973        1.1014529774
 H         -1.0017937282        3.4477501087        2.2605870571
 C          1.0150468549        3.0008231201        1.7189161875
 H          1.4510109046        3.9959648016        1.8268461722
 H          1.0903051549        2.4851579004        2.6806594696
 H          0.6303007863        5.2317823271       -1.9947297065
 H          0.9972372101        3.6705761824       -2.7407993473
 H          1.9874647421        4.7299530584       -0.0635515460
 H          2.9329689987        4.3402726946       -1.5130108373
 O          2.9713563776        1.8985859640       -1.3014667876
 C          3.2049160495        0.5585167402       -1.0536863553
 O          3.8349430027       -0.0241563810       -1.9601453618
 H          0.4836637233       -1.2725947489        1.1799631761
 C          0.5594138339       -1.9774383943        0.3654232173
 C          1.8021619576       -2.2526535714       -0.1861731483
 C          1.8719373515       -3.1641318707       -1.2326490867
 C          0.7245923457       -3.7621525688       -1.7266474730
 C         -0.5179670614       -3.4424376576       -1.2073523013
 C         -0.5922519086       -2.5412301590       -0.1557565954
 N         -1.8683451630       -2.1184434528        0.3178344895
 S         -2.4117759277       -0.8766026356       -0.7091107643
 O         -2.6728164172       -1.4647230090       -1.9992694229
 O         -1.4826166800        0.2319826800       -0.6915167945
 C         -3.9507596899       -0.4080098127        0.0593013634
 C         -4.0660647130        0.8247214229        0.6709777714
 C         -5.2668689851        1.1619827492        1.2763749851
 C         -6.3229671452        0.2639259895        1.2618430491
 C         -6.1906140020       -0.9711862197        0.6440086617
 C         -4.9941038035       -1.3138196938        0.0354253949
 H         -4.8468595072       -2.2572373681       -0.4629912300
 H         -7.0148051995       -1.6659372484        0.6342238036
 H         -7.2558445453        0.5292753849        1.7336787893
 H         -5.3715746057        2.1222123085        1.7552564371
 H         -3.2193665127        1.4927372155        0.6547700368
 H         -1.7743029618       -1.7095929725        1.2413572322
 H         -1.4243626464       -3.8544442181       -1.6195239450
 H          0.7965709017       -4.4639968604       -2.5437313668
 H          2.8307384254       -3.3791849867       -1.6818889860
 C          3.0188463460       -1.4962540621        0.2929295179
 H          3.8467836256       -1.7238698495       -0.3920753171
 C          3.4227345301       -1.9171036952        1.6914218682
 C          4.1953734623       -3.1879465108        1.8706200743
 C          4.8676450984       -1.8653757670        2.0824403293
 H          5.1171572264       -1.5650707320        3.0888401726
 H          5.5739281039       -1.5265015762        1.3382624165
 H          4.4500695233       -3.7486005453        0.9839779283
 H          3.9832063119       -3.8007163678        2.7330672434
 H          2.6939740278       -1.6571477461        2.4472034146
 O          1.5832266434        0.3190519904        2.1844552155
