  62
        -98.93805341
 C          2.4793247757        1.1883421070       -0.0779362177
 C          3.2122119817        0.4794359217        0.9000135265
 C          4.0289038544       -0.6487077263        0.4188667220
 C          4.0294647877       -0.9392627259       -0.8940547005
 C          4.7423266723       -2.0715878469       -1.5804639832
 C          3.8159772783       -3.2915523755       -1.7203307302
 C          3.8122056385       -4.2393325096       -0.5213451700
 H          3.0239104148       -4.9763424357       -0.6913936035
 H          4.7615974406       -4.7775732612       -0.4862064142
 C          3.5781551149       -3.5750832827        0.8381484133
 H          3.2317042447       -4.3439282944        1.5318420699
 H          2.7798228996       -2.8349092164        0.7539002483
 C          4.8412028677       -2.9182014476        1.4150792865
 H          4.9945517509       -3.2672544169        2.4383872896
 H          5.7073226743       -3.2495316293        0.8427227738
 C          4.8153113638       -1.3832827730        1.4704557035
 H          4.3751748688       -1.0613518079        2.4198153684
 H          5.8443603782       -1.0088085252        1.4620618184
 H          4.1185911625       -3.8623391013       -2.6004346265
 H          2.8029911702       -2.9231461999       -1.9024376337
 H          5.0003420400       -1.7152318297       -2.5797957160
 H          5.6559612668       -2.3289102569       -1.0531555037
 O          3.2988891840       -0.2358266741       -1.8022294762
 C          2.5019740362        0.8318262681       -1.4263195441
 O          1.8791374997        1.3653576528       -2.3623307905
 H          0.2817369501        0.1063411898        0.8426853572
 C         -0.3618588820        0.8335888558        0.3615513608
 C          0.1618270261        2.0749934665        0.0201921549
 C         -0.6800888309        3.0035683906       -0.5767348917
 C         -2.0005413524        2.6831177006       -0.8428974032
 C         -2.5103309812        1.4396392391       -0.5196067279
 C         -1.6818083556        0.5078669345        0.0926330068
 N         -2.1886710361       -0.7626392972        0.4210078530
 S         -3.5992712574       -0.8344598716        1.3317543268
 O         -3.7445778939        0.3316638866        2.1718681069
 O         -3.5468875334       -2.1124892269        2.0077784207
 C         -4.8965254419       -0.8758774616        0.1135029597
 C         -5.8918923741        0.0813180248        0.1341241194
 C         -6.8974015927        0.0225559218       -0.8183896731
 C         -6.8898722343       -0.9871181231       -1.7685430560
 C         -5.8839830254       -1.9421430538       -1.7740456926
 C         -4.8765734621       -1.8897773072       -0.8240834422
 H         -4.0797388538       -2.6140471653       -0.7910185141
 H         -5.8813396774       -2.7258580153       -2.5144122848
 H         -7.6726573607       -1.0306119561       -2.5092482129
 H         -7.6804230089        0.7636384134       -0.8157229913
 H         -5.8536846564        0.8500923961        0.8893456660
 H         -1.4938959059       -1.3871727196        0.8044379025
 H         -3.5353162468        1.1843983084       -0.7333122715
 H         -2.6409295227        3.4128615076       -1.3142516414
 H         -0.3019767577        3.9779620945       -0.8384275346
 C          1.6080062734        2.3539995549        0.3512573342
 H          1.7001556234        2.4008857026        1.4471937973
 C          2.1285339520        3.6490678042       -0.2356328603
 C          1.9191155122        4.9447539290        0.4878532092
 C          3.2844690169        4.3303452981        0.4313792352
 H          4.0366537997        4.7951622397       -0.1880677209
 H          3.6791223817        3.8731919544        1.3272600755
 H          1.3879955082        4.9127049580        1.4272547368
 H          1.7360257384        5.8361769738       -0.0928715483
 H          2.1020986301        3.6542504036       -1.3194260165
 O          3.1757805827        0.7669158264        2.1287282522
