  62
        -98.94762741
 C         -1.8373519342       -1.3328826374       -0.1007358101
 C         -2.9370337160       -0.6046496824        0.4170323981
 C         -3.2454256216        0.6640148250       -0.2493163326
 C         -2.4944116416        1.0706311184       -1.2884773933
 C         -2.6648972455        2.3514186802       -2.0581447140
 C         -1.9702817408        3.5485219448       -1.3942226468
 C         -2.6745506205        4.0960892209       -0.1521257326
 H         -2.2249441834        5.0662658298        0.0689565912
 H         -3.7290613896        4.2663890744       -0.3744340844
 C         -2.5429478921        3.2026777318        1.0894298263
 H         -2.2905937643        3.8201972414        1.9554359613
 H         -1.7100841637        2.5080866335        0.9493595398
 C         -3.8069426158        2.4194741166        1.4475765384
 H         -3.5828233650        1.7898491788        2.3127579776
 H         -4.5985189633        3.1161163081        1.7343250147
 C         -4.3366680727        1.5140840701        0.3278916993
 H         -5.0889139775        0.8465448253        0.7561234660
 H         -4.8040684313        2.1149103280       -0.4520097453
 H         -1.9086838379        4.3480587321       -2.1365338205
 H         -0.9510964333        3.2557635144       -1.1273213540
 H         -2.2132869477        2.1901743710       -3.0393688475
 H         -3.7251562704        2.5680708765       -2.1921124703
 O         -1.4659898410        0.3329374590       -1.7756714176
 C         -1.0726626546       -0.8455160526       -1.1613463709
 O         -0.0542148080       -1.3572432025       -1.6658413570
 H         -0.1708650543       -0.4783447307        1.7042460941
 C          0.5344240263       -1.2675527466        1.4851733208
 C          0.0843179624       -2.4639364449        0.9386770041
 C          1.0150867532       -3.4593512379        0.6739491899
 C          2.3600240381       -3.2481237328        0.9296110949
 C          2.8078670753       -2.0355273372        1.4201394954
 C          1.8822020145       -1.0338819244        1.6893944760
 N          2.2738910784        0.2463034933        2.1408565894
 S          2.0473663973        1.4968930701        1.0418194997
 O          2.5105060383        2.6885594518        1.7213776633
 O          0.6820652816        1.5132814734        0.5877225030
 C          3.1746359735        1.1032262604       -0.2836836540
 C          2.8164056344        0.1582511454       -1.2239174831
 C          3.7444422512       -0.1997350176       -2.1911030129
 C          5.0015959952        0.3838023265       -2.2004848970
 C          5.3440096968        1.3321227212       -1.2477807865
 C          4.4254036362        1.6919040008       -0.2757626123
 H          4.6439192049        2.4249010942        0.4842133866
 H          6.3212301499        1.7874337658       -1.2575455179
 H          5.7172726984        0.0979474525       -2.9552111610
 H          3.4705112040       -0.9379074717       -2.9277878959
 H          1.8308847894       -0.2820329990       -1.2047224656
 H          3.2268124457        0.2825701905        2.4782581926
 H          3.8602301476       -1.8588747932        1.5853567379
 H          3.0718467743       -4.0313030403        0.7179519909
 H          0.6930847820       -4.3943171128        0.2457129657
 C         -1.3927453519       -2.5762790855        0.6510728956
 H         -1.9305788178       -2.5157139517        1.6130541932
 C         -1.7973411201       -3.8963889900        0.0138276411
 C         -2.9473884706       -3.9702475968       -0.9445101719
 C         -1.5496970737       -4.1956627594       -1.4332942885
 H         -1.2605543761       -5.2001850453       -1.7058387665
 H         -1.0809571550       -3.4265777355       -2.0260127686
 H         -3.6160202297       -4.8155466631       -0.8788328078
 H         -3.4379637820       -3.0442204556       -1.2081986031
 H         -1.7007768708       -4.7273727305        0.7059681516
 O         -3.6198946349       -0.9926488698        1.4040361384
