  62
        -98.93870002
 C          0.9142280502        1.5500279801       -0.0645964298
 C          1.5660010502        0.7494013202        0.9074048502
 C          2.5087071998       -0.2594348402        0.4080509703
 C          2.6871937996       -0.3973387405       -0.9178160597
 C          3.5393453892       -1.4282347309       -1.6103167096
 C          5.0589495993       -1.3369566512       -1.3721205399
 C          5.5726740093       -2.2142834611       -0.2237503898
 H          4.8743913791       -3.0387152409       -0.0740997995
 H          6.5241321791       -2.6595101514       -0.5216230098
 C          5.8114924897       -1.4962330508        1.1077295100
 H          5.9290376396       -2.2576324607        1.8816693102
 H          6.7494362298       -0.9394291211        1.0487012897
 C          4.7224003400       -0.5143929205        1.5392166300
 H          4.7952207301        0.3987604394        0.9437568098
 H          4.9162522502       -0.2246864603        2.5738136299
 C          3.2837405698       -1.0538629701        1.4190052204
 H          3.2872973095       -2.1108212502        1.1561123406
 H          2.7650867900       -0.9359823098        2.3723583604
 H          5.5415919190       -1.6652127215       -2.2941171199
 H          5.3399994896       -0.2959689512       -1.2143001202
 H          3.1844857090       -2.4211479707       -1.3227921993
 H          3.3354078591       -1.3020012411       -2.6759570196
 O          2.0482738996        0.3922900794       -1.8213240498
 C          1.1516427399        1.3794603997       -1.4303810598
 O          0.6622222499        2.0099262996       -2.3874070699
 O          1.3587933104        0.8657252105        2.1453221103
 C         -0.0870372995        2.5621177105        0.4570314801
 C         -1.4964245796        2.0116982908        0.4751078105
 C         -2.4006003493        2.4305513613        1.4463275605
 C         -3.6902663294        1.9333410816        1.4718443009
 C         -4.0968476598        0.9842189815        0.5502534612
 C         -3.2011745001        0.5553840010       -0.4206136089
 C         -1.9193382600        1.0857464707       -0.4652707992
 H         -1.2520772402        0.7546954904       -1.2451960593
 N         -3.5565734005       -0.4373053591       -1.3540402586
 S         -2.5328545908       -1.7595530994       -1.4837756785
 O         -1.3370994909       -1.4115516598       -2.2067953988
 O         -3.3542174712       -2.7954799193       -2.0735526081
 C         -2.1502793207       -2.1649412991        0.2093891115
 C         -3.0878887307       -2.8590831587        0.9497363519
 C         -2.8435170805       -3.0879071484        2.2937895119
 C         -1.6816948803       -2.6036307086        2.8768352016
 C         -0.7500909203       -1.9098013590        2.1205773812
 C         -0.9830930704       -1.6917772092        0.7720652412
 H         -0.2750255704       -1.1577492795        0.1573827110
 H          0.1475486799       -1.5117416591        2.5671842510
 H         -1.4979158902       -2.7669032784        3.9269387216
 H         -3.5616771406       -3.6330164781        2.8848041721
 H         -3.9777678309       -3.2168307986        0.4575636121
 H         -4.5145855606       -0.7496235588       -1.2746559884
 H         -5.0957145599        0.5768975317        0.5812129714
 H         -4.3813505992        2.2713008119        2.2283778409
 H         -2.0832086990        3.1452462814        2.1898369403
 H          0.2042822908        2.7460065206        1.5011383000
 C         -0.0619728093        3.8850432603       -0.2854526202
 C         -0.3694046188        5.1577600105        0.4424746296
 C          1.0327229710        4.8674929601        0.0003181094
 H          1.4482913710        5.4263612398       -0.8244485108
 H          1.7592065811        4.5974148001        0.7530814093
 H         -0.9244058387        5.9234371406       -0.0771683005
 H         -0.5826860787        5.0988408008        1.4985861496
 H         -0.3918305294        3.7990771902       -1.3131568901
