  62
        -98.93790968
 C          2.1471200973        1.2470825799       -0.1496008648
 C          2.5891198476        0.0975575160       -0.8417859180
 C          3.9757643389       -0.3416044433       -0.5815481976
 C          4.7358954208        0.3762863845        0.2661665975
 C          6.1481904671        0.1019624630        0.7092153911
 C          6.2311544990       -1.0274708497        1.7494144513
 C          5.3611748922       -2.2452431372        1.4479562002
 H          5.4167317002       -2.9148263978        2.3104029699
 H          4.3206638800       -1.9291751482        1.3514518515
 C          5.7652501629       -3.0441767971        0.2111835619
 H          6.7896930754       -3.4025493604        0.3355309838
 H          5.1114083537       -3.9188217202        0.1621681502
 C          5.6698167144       -2.3045371425       -1.1246557356
 H          5.7593850286       -3.0533208081       -1.9173167737
 H          6.5036475416       -1.6195388777       -1.2527283654
 C          4.3483867631       -1.5794758179       -1.3613214339
 H          4.2952468576       -1.2903986214       -2.4181301091
 H          3.5217269042       -2.2844891953       -1.2153075868
 H          7.2737354759       -1.3359627333        1.8423983128
 H          5.9117861716       -0.6223258518        2.7126921139
 H          6.7736193557       -0.1152751795       -0.1514386110
 H          6.5185536952        1.0224314447        1.1658569930
 O          4.2680406077        1.4890629393        0.9014011026
 C          2.9774900696        1.9455160230        0.7257454463
 O          2.6901755383        2.9622163130        1.3896427775
 H         -1.2796221142        0.5530523170       -1.8162396250
 C         -1.2041194992        0.1684344672       -0.8115701823
 C         -0.2451977962        0.6696068167        0.0532267431
 C         -0.1782640666        0.1512574913        1.3443139190
 C         -1.0315518101       -0.8571110417        1.7481380925
 C         -1.9734805156       -1.3716213615        0.8739145926
 C         -2.0558727278       -0.8545938408       -0.4113163978
 N         -3.0132191558       -1.3655796731       -1.3012869234
 S         -4.5616219632       -1.6445235493       -0.7383996196
 O         -4.6065060014       -2.8943903211       -0.0211871439
 O         -5.4089050589       -1.5563187762       -1.9068277168
 C         -4.8965336046       -0.2941582365        0.3792322101
 C         -4.8714459992        0.9904339875       -0.1271646358
 C         -5.0971981195        2.0537890713        0.7312068836
 C         -5.3419465676        1.8161254971        2.0752971241
 C         -5.3683372346        0.5207327587        2.5673800777
 C         -5.1418308898       -0.5468444446        1.7132354955
 H         -5.1520541080       -1.5691014955        2.0547934549
 H         -5.5607961709        0.3388524450        3.6124742390
 H         -5.5139342545        2.6463435681        2.7420323530
 H         -5.0789557497        3.0625470283        0.3509370444
 H         -4.6854137714        1.1413217710       -1.1782592275
 H         -3.0146756908       -0.9261086250       -2.2093898022
 H         -2.6322769286       -2.1738697480        1.1638965457
 H         -0.9610781952       -1.2521835126        2.7502654513
 H          0.5634353349        0.5477576749        2.0247532896
 C          0.7281249043        1.7546973104       -0.3373724107
 H          0.6111670967        2.5882389568        0.3696936970
 C          0.5362968216        2.2799482789       -1.7442885895
 C         -0.5275129267        3.2978202066       -2.0241493115
 C          0.9168757239        3.6969357281       -2.0458336403
 H          1.3791227151        3.9149399884       -2.9970034500
 H          1.2991365144        4.2924338328       -1.2295444518
 H         -1.0571999103        3.2486210011       -2.9637338455
 H         -1.1305440539        3.6291738520       -1.1925616698
 H          0.7496423752        1.5353753713       -2.5027384945
 O          1.8636453516       -0.5476690746       -1.6440643125
