  62
        -98.93215220
 C         -2.4082202199       -0.5407593471        0.5082843311
 C         -3.2212968874       -0.4172195141       -0.6433465738
 C         -4.3364350469        0.5486542393       -0.5578142767
 C         -4.5168158299        1.2655899349        0.5657832400
 C         -5.5263416427        2.3397885027        0.9133678915
 C         -6.7847569670        2.5331102313        0.0709060284
 C         -7.7790378093        1.3740904802        0.1276846212
 H         -8.2130732972        1.3363114077        1.1300934407
 H         -8.5871522357        1.5839126821       -0.5765190328
 C         -7.2015128264       -0.0060371003       -0.1766939083
 H         -8.0172902078       -0.7312378794       -0.1107344042
 H         -6.4709970550       -0.2751456726        0.5891601420
 C         -6.5561085164       -0.1563712063       -1.5530930688
 H         -7.2629824773        0.1514441039       -2.3259918887
 H         -6.3413228018       -1.2182475524       -1.7005784038
 C         -5.2392125828        0.6135033150       -1.7561488863
 H         -4.6941804237        0.1380503247       -2.5767456306
 H         -5.4235160057        1.6463178134       -2.0416392431
 H         -7.2891048357        3.4191224405        0.4662305590
 H         -6.5195681922        2.7555239266       -0.9584207305
 H         -5.8171377949        2.1472450988        1.9509883693
 H         -4.9672979340        3.2820628706        0.9206636997
 O         -3.6850339262        1.1333132368        1.6415050155
 C         -2.6349688267        0.2365937818        1.6454247408
 O         -1.9843549910        0.2157626119        2.7105548657
 H          1.1128659694       -1.2230376354        1.8894203360
 C          1.1541811750       -0.8200523030        0.8859443031
 C          0.0232874493       -0.8732144096        0.0847394102
 C          0.0867396967       -0.3326663690       -1.1960188650
 C          1.2589463612        0.2383405608       -1.6567077236
 C          2.3851545431        0.2896380261       -0.8534598785
 C          2.3310065501       -0.2407790160        0.4280065150
 N          3.4660006239       -0.1744243932        1.2535248249
 S          4.9280684224       -0.7319032885        0.6437926935
 O          4.7231783587       -1.7572969823       -0.3525520640
 O          5.7020108179       -1.1081703871        1.8063551362
 C          5.6620681683        0.7086495546       -0.1009446359
 C          5.8547539657        1.8244659816        0.6898871979
 C          6.4340319207        2.9507018088        0.1277343572
 C          6.8108236114        2.9413302088       -1.2071562697
 C          6.6135809290        1.8120160345       -1.9868627527
 C          6.0339921636        0.6821593607       -1.4307336937
 H          5.8575034268       -0.2169583044       -1.9995305236
 H          6.9076073288        1.8067631862       -3.0241552469
 H          7.2613399966        3.8194481593       -1.6421862058
 H          6.5892705676        3.8308083655        0.7308257822
 H          5.5516306973        1.7899886573        1.7230621078
 H          3.3113624388       -0.5203080755        2.1895034804
 H          3.2992999128        0.7364268730       -1.2088697280
 H          1.2962296945        0.6511619951       -2.6534467495
 H         -0.7908064451       -0.3708115722       -1.8234297725
 C         -1.2398038493       -1.5078592150        0.6068040033
 H         -1.1014138647       -1.6740524643        1.6872852236
 C         -1.5337870052       -2.8653520197       -0.0183395361
 C         -0.8551316771       -3.3905359661       -1.2438140040
 C         -0.5258851619       -3.9711569463        0.0963986857
 H         -0.8699830668       -4.9662720893        0.3345383143
 H          0.4363960183       -3.7239280712        0.5210611016
 H         -0.1119058594       -2.7752210948       -1.7252922005
 H         -1.4502852571       -3.9711390187       -1.9319158011
 H         -2.5742869280       -3.1474283635        0.1067169562
 O         -3.0436088905       -1.0651949808       -1.7054969262
