  62
        -98.93747660
 C         -2.4423525662       -1.0376384754       -0.0909342652
 C         -3.5693266660       -0.8348622313        0.7385969142
 C         -4.6291820354        0.0421917699        0.2119306338
 C         -4.4728831408        0.6117906584       -0.9979262912
 C         -5.3889891924        1.5110772903       -1.8016688204
 C         -6.5926732650        2.1857851007       -1.1489742447
 C         -6.2435984090        3.2509240379       -0.1100159584
 H         -5.7997500368        4.1064046727       -0.6254147521
 H         -7.1710871655        3.5890614537        0.3572364254
 C         -5.2682721993        2.8145742861        0.9804043927
 H         -4.3030900272        2.5683791934        0.5328513415
 H         -5.1060470967        3.6680458171        1.6443354338
 C         -5.7309624502        1.6397984817        1.8399031635
 H         -5.0232769416        1.5386885851        2.6672446497
 H         -6.7122976016        1.8587833584        2.2651937964
 C         -5.7994861808        0.2805617627        1.1222838734
 H         -6.7361365435        0.1645201315        0.5823880003
 H         -5.7604333487       -0.5044107091        1.8831837105
 H         -7.1458363255        2.6789517203       -1.9529639236
 H         -7.2572148490        1.4402697639       -0.7224114793
 H         -4.7422754534        2.2782907697       -2.2390746544
 H         -5.7468030851        0.8984403063       -2.6366254522
 O         -3.3627272179        0.3880889463       -1.7609560508
 C         -2.3251391391       -0.4253813893       -1.3369682738
 O         -1.3844364547       -0.5184542075       -2.1478034715
 O         -3.6907992938       -1.3694170199        1.8736690969
 C         -1.3183715202       -1.9299567301        0.4056210068
 C         -0.0651348251       -1.1051839249        0.5624592379
 C         -0.0563735290       -0.0828225173        1.5087258068
 C          1.0589412483        0.7134399989        1.6794494760
 C          2.1903222032        0.5128511172        0.9068093655
 C          2.1940946911       -0.5044974385       -0.0362901376
 C          1.0736918166       -1.3111564700       -0.1983091445
 H          1.0925559420       -2.0946193299       -0.9395995454
 N          3.3323490968       -0.7032907700       -0.8343424628
 S          4.8343509890       -0.7866345577       -0.0951969171
 O          5.6640648533       -1.5423299482       -1.0082345724
 O          4.7329699019       -1.2983335942        1.2520100487
 C          5.3965283942        0.9024838761       -0.0652481828
 C          5.4149555903        1.6056411147       -1.2537971378
 C          5.8615596033        2.9173744367       -1.2478742165
 C          6.2826893612        3.4995389079       -0.0614108806
 C          6.2612681417        2.7790921724        1.1228875464
 C          5.8147007761        1.4667304767        1.1239418051
 H          5.7745930615        0.8700343992        2.0213299664
 H          6.5892191259        3.2333660267        2.0440602165
 H          6.6296272812        4.5208195836       -0.0601446620
 H          5.8788022354        3.4811183072       -2.1667396923
 H          5.0811380411        1.1177099105       -2.1544094075
 H          3.2239603410       -1.4266221683       -1.5300524306
 H          3.0627399137        1.1334613427        1.0304326406
 H          1.0492354748        1.5009717120        2.4177145922
 H         -0.9426028568        0.0777373045        2.1075589901
 H         -1.6319715309       -2.2639919633        1.4050270810
 C         -1.1560514525       -3.1439329630       -0.4835050750
 C         -0.4592913868       -4.3630264428        0.0408486255
 C         -1.9418420789       -4.3818706000       -0.1767638441
 H         -2.3354653884       -4.9592099573       -0.9998422444
 H         -2.5872764175       -4.3602116720        0.6889760009
 H          0.1655826154       -4.9318133416       -0.6313512738
 H         -0.0944607095       -4.3303100027        1.0564799169
 H         -1.0223369650       -2.8875479219       -1.5283858218
