  62
        -98.93909130
 C         -2.3349039825       -0.6907105212        0.1185372512
 C         -2.5517810874        0.7078685102        0.2362666972
 C         -3.7774627512        1.2363953165       -0.3747104680
 C         -4.6078287109        0.3912297681       -1.0118400921
 C         -5.9175469896        0.7779527471       -1.6339914641
 C         -7.0724413908        0.6298551200       -0.6335381614
 C         -6.8023409879        1.2825477311        0.7221419324
 H         -7.6952446558        1.1416553226        1.3350096372
 H         -5.9859387755        0.7516907286        1.2171869214
 C         -6.4623502452        2.7777701313        0.6502995415
 H         -7.0257366986        3.3028353234        1.4244838863
 H         -6.7771445513        3.1839437512       -0.3115615190
 C         -4.9849779615        3.1038773344        0.8775877740
 H         -4.8929371081        4.1836565888        1.0225809474
 H         -4.6390272776        2.6209109009        1.7951020450
 C         -4.0325032337        2.7130277848       -0.2596214127
 H         -4.4040524770        3.1138699570       -1.2049851701
 H         -3.0601964340        3.1693059147       -0.0511955518
 H         -7.2542656460       -0.4347859040       -0.4702513043
 H         -7.9703619352        1.0646035921       -1.0762257007
 H         -5.8563113141        1.8060954233       -1.9852720415
 H         -6.1001703078        0.1215975521       -2.4863357335
 O         -4.3635173839       -0.9372878808       -1.1179067481
 C         -3.2325305830       -1.5164928010       -0.5592807097
 O         -3.1691626046       -2.7474263200       -0.7435209089
 H          1.2433157583        0.1356196517        0.5266468409
 C          1.1587741444       -0.6425782385       -0.2182878785
 C          0.0240221057       -1.4393098646       -0.2654980660
 C         -0.0672393357       -2.4185457564       -1.2498191884
 C          0.9616622665       -2.5946627837       -2.1564552677
 C          2.1037672976       -1.8161067967       -2.0903234968
 C          2.1996927445       -0.8281613362       -1.1175103823
 N          3.3343117767       -0.0050889458       -1.0398840943
 S          3.8639684185        0.4844277676        0.4869600245
 O          3.7886703399       -0.6229080385        1.4132530047
 O          3.1591603538        1.6833748053        0.8650656124
 C          5.5666732275        0.8752942435        0.1288717147
 C          6.5413790736       -0.0780317345        0.3559643631
 C          7.8585285542        0.2233411667        0.0470408020
 C          8.1764630477        1.4645902575       -0.4834862809
 C          7.1873523279        2.4115106430       -0.7049122396
 C          5.8684931548        2.1171521037       -0.3974426760
 H          5.0675079354        2.8233190736       -0.5427252794
 H          7.4386014035        3.3766993981       -1.1142016803
 H          9.2021036821        1.6968362786       -0.7229884966
 H          8.6300894331       -0.5091223128        0.2213997320
 H          6.2484758172       -1.0256068719        0.7787678849
 H          4.0975323210       -0.3306403347       -1.6172452138
 H          2.9112497685       -1.9654051705       -2.7910704389
 H          0.8786177717       -3.3568008479       -2.9166490452
 H         -0.9560494339       -3.0277368719       -1.3032409171
 C         -1.0696118961       -1.2379239226        0.7568706434
 H         -0.7307739997       -0.4483802296        1.4424725650
 C         -1.2873024674       -2.5051957317        1.5611825262
 C         -0.2345410784       -2.9187535524        2.5440836709
 C         -1.5559192268       -2.4058559196        3.0311332058
 H         -2.2484162525       -3.1044704647        3.4762709140
 H         -1.5891681928       -1.4183207905        3.4685399969
 H          0.6315342499       -2.2803929843        2.6459666913
 H         -0.0189756227       -3.9702996283        2.6554632685
 H         -1.7996825073       -3.2840732445        1.0121510839
 O         -1.7554042357        1.4810254650        0.8353169946
