  62
        -98.94660904
 C          1.1544217554        1.3574292582        0.2556891953
 C          1.3683146098        0.3399004208       -0.7054909588
 C          2.3411318679       -0.6988489542       -0.3350278918
 C          2.9003283782       -0.6816234019        0.8875836709
 C          3.9465465879       -1.6435982711        1.3692229607
 C          5.3582092374       -1.1113965273        1.0834000435
 C          5.5573631967       -0.6258179797       -0.3526249000
 H          4.9326775107        0.2542193965       -0.5220193664
 H          6.5967489617       -0.3030792064       -0.4445990314
 C          5.2523297522       -1.6776268216       -1.4284833375
 H          6.0476754705       -1.6532028833       -2.1764617470
 H          5.2572152249       -2.6738177005       -0.9847477605
 C          3.9336209577       -1.4606369178       -2.1734833441
 H          3.9233397484       -2.1215573673       -3.0443006441
 H          3.8871633098       -0.4331860923       -2.5432018084
 C          2.6600911455       -1.7439672781       -1.3663304873
 H          1.8162297399       -1.7473590814       -2.0618836187
 H          2.7317846356       -2.7311456465       -0.9074021090
 H          6.0770997520       -1.9024192145        1.3046284186
 H          5.5565295288       -0.2746352154        1.7572034260
 H          3.8076584903       -2.6051063227        0.8787614827
 H          3.8297729181       -1.7712441799        2.4468044643
 O          2.6017498498        0.2577102237        1.8191564111
 C          1.7537741626        1.3074027770        1.5194980845
 O          1.6084791453        2.1260692244        2.4487971255
 O          0.7973942645        0.2807618072       -1.8279757279
 C          0.2658420639        2.5697433771        0.0134148555
 C         -1.1893699930        2.2218438814        0.2079088889
 C         -1.9331360440        2.7951398106        1.2323424606
 C         -3.2595729468        2.4464739397        1.4237774361
 C         -3.8676633420        1.5114492642        0.6045912936
 C         -3.1271914205        0.9273465010       -0.4142597542
 C         -1.8050745701        1.2908898135       -0.6167994551
 H         -1.2331513978        0.8231479636       -1.4046146164
 N         -3.7210538302       -0.0789578944       -1.2148492906
 S         -3.9348048094       -1.5364539786       -0.4168578383
 O         -4.3423660053       -2.4878669189       -1.4248479100
 O         -4.8526532234       -1.3289487527        0.6739456923
 C         -2.3268248416       -1.9777312398        0.2216431088
 C         -1.5651136287       -2.9014345765       -0.4646897561
 C         -0.3099819536       -3.2293488370        0.0200947313
 C          0.1686262422       -2.6147389869        1.1664285633
 C         -0.5999094166       -1.6738654315        1.8335126242
 C         -1.8630127591       -1.3538415768        1.3630438931
 H         -2.4909187188       -0.6395888547        1.8706735392
 H         -0.2170979624       -1.1828802446        2.7150607662
 H          1.1454237045       -2.8680969462        1.5467641378
 H          0.2912457217       -3.9589553531       -0.4978145334
 H         -1.9748666430       -3.3549974818       -1.3529905555
 H         -3.1970532285       -0.2536487426       -2.0624325288
 H         -4.8894638928        1.2042683413        0.7566066090
 H         -3.8240988078        2.9022067143        2.2230880959
 H         -1.4592266288        3.5063673171        1.8932166059
 H          0.5412036082        3.2965335253        0.7891040839
 C          0.4982812254        3.2078556133       -1.3428887563
 C          0.1032870987        4.6378292068       -1.5491138435
 C          1.5527991975        4.2617546080       -1.4855694958
 H          2.1352796583        4.2886969253       -2.3943140057
 H          2.1118635294        4.5334267053       -0.6016725895
 H         -0.3125048210        4.9251262280       -2.5026186030
 H         -0.3198496900        5.1665800502       -0.7083930763
 H          0.3656452117        2.5241310069       -2.1707022036
