  62
        -98.94336484
 C          1.9018949112        0.6174498388       -0.7540072288
 C          2.2536687417        0.1111478334        0.5207822265
 C          3.6873860983        0.1353195478        0.8382055356
 C          4.5622822554        0.6420496168       -0.0496145920
 C          6.0498623273        0.7633127543        0.1426803159
 C          6.8300628116       -0.5151791096       -0.1924161303
 C          6.6797357845       -1.6521659578        0.8189945681
 H          7.4421315049       -2.3962256883        0.5797075008
 H          6.8945896963       -1.2768021366        1.8200018547
 C          5.3039347611       -2.3328777814        0.8060443521
 H          4.7833453221       -2.0841508667       -0.1215657090
 H          5.4346565027       -3.4172817040        0.8186317309
 C          4.4059911189       -1.9709455606        1.9891563255
 H          3.4469605677       -2.4783754219        1.8590149743
 H          4.8566094293       -2.3339033667        2.9155815453
 C          4.1298528689       -0.4688863622        2.1366503586
 H          5.0163430135        0.0416182133        2.5124982850
 H          3.3176984061       -0.3377464572        2.8558781087
 H          6.5220336268       -0.8631934093       -1.1810885063
 H          7.8872224845       -0.2456423601       -0.2498994459
 H          6.3857001447        1.5569672044       -0.5283027526
 H          6.2635857655        1.0630339506        1.1690799802
 O          4.1786639073        1.1396565702       -1.2562302236
 C          2.8481749355        1.1245510788       -1.6433991961
 O          2.6377585388        1.5932851953       -2.7813193338
 O          1.4186487486       -0.3316991414        1.3506213315
 C          0.4485454186        0.6204354507       -1.1880023544
 C         -0.4001403175        1.4141546076       -0.2238418281
 C          0.0953349970        2.6031856764        0.3048735252
 C         -0.6596670844        3.3561703759        1.1823258476
 C         -1.9361113868        2.9533412512        1.5330466443
 C         -2.4490774550        1.7795050756        0.9967428633
 C         -1.6801010665        1.0146652385        0.1295621011
 H         -2.0970812035        0.1071024612       -0.2742479763
 N         -3.7376375367        1.3415217267        1.3353599390
 S         -4.7316064357        0.6797753243        0.1641308327
 O         -4.4876487661        1.2613850632       -1.1350794849
 O         -6.0709665786        0.8426952073        0.6897492467
 C         -4.3362895621       -1.0557709352        0.1478855791
 C         -4.0582086615       -1.6943146369        1.3401502764
 C         -3.7999744441       -3.0556477300        1.3247892544
 C         -3.8330527619       -3.7540003924        0.1271774220
 C         -4.1206671995       -3.0994569114       -1.0604204006
 C         -4.3748323660       -1.7366032072       -1.0527090288
 H         -4.5903292105       -1.1860167287       -1.9546163490
 H         -4.1466174438       -3.6435053166       -1.9914276928
 H         -3.6324932113       -4.8138151506        0.1189595068
 H         -3.5728683432       -3.5675435135        2.2460828721
 H         -4.0382208217       -1.1220743238        2.2524638209
 H         -4.2476822647        1.9565745373        1.9525288447
 H         -2.5295120303        3.5425779258        2.2156980832
 H         -0.2549627972        4.2698143364        1.5914536894
 H          1.0882384828        2.9271711361        0.0230753275
 H          0.4202436157        1.1349248376       -2.1606434733
 C         -0.0321818387       -0.8043917291       -1.3767364740
 C         -1.0634243554       -1.1310590863       -2.4131350974
 C          0.3634406062       -1.5383752457       -2.6215326981
 H          0.6179873792       -2.5846948672       -2.5456291963
 H          0.9518301245       -0.9967923093       -3.3483583503
 H         -1.7868504000       -1.9009427686       -2.1908572937
 H         -1.4543183544       -0.3171313845       -3.0056347453
 H         -0.0454770013       -1.3626486195       -0.4475246903
