  62
        -98.94382942
 C         -1.2995078989       -1.4239174049        0.6119039541
 C         -2.0977753695       -1.0226939217       -0.4880973518
 C         -3.1301260729       -0.0157995091       -0.1985868402
 C         -3.2479843791        0.4776764935        1.0463626662
 C         -4.2187111998        1.5441674120        1.4610128979
 C         -3.5923848200        2.9410770361        1.3501261278
 C         -2.9026588188        3.2128914826        0.0124853269
 H         -2.0131699823        2.5824744240       -0.0724547625
 H         -2.5458840757        4.2454669966        0.0382496365
 C         -3.7978935369        3.0139197543       -1.2186936593
 H         -3.6322844821        3.8473416207       -1.9048039792
 H         -4.8471497593        3.0417461018       -0.9210982620
 C         -3.5264157462        1.7307425373       -2.0063426513
 H         -2.4547106599        1.6483329594       -2.2078188423
 H         -4.0366993312        1.8095816269       -2.9702502698
 C         -3.9944167243        0.4286851721       -1.3441091325
 H         -3.9328601770       -0.3655484474       -2.0938976779
 H         -5.0356066562        0.5274350638       -1.0303847594
 H         -2.8473325959        3.0527069401        2.1415426063
 H         -4.3762942913        3.6834822281        1.5133254860
 H         -4.5025791535        1.3662289854        2.4999273950
 H         -5.1073963875        1.4824725360        0.8358610587
 O         -2.4512671380        0.0856382378        2.0729934689
 C         -1.4359641107       -0.8352541845        1.8707739871
 O         -0.7278031803       -1.0433405087        2.8775275792
 O         -1.9636010777       -1.4697655983       -1.6562094696
 C         -0.1368203147       -2.3865370209        0.4389332558
 C          0.7093579939       -1.9467850453       -0.7325200223
 C          1.2209118238       -2.8003759494       -1.7004042734
 C          2.0094666181       -2.2996204721       -2.7230130079
 C          2.3178717103       -0.9533992530       -2.7963242238
 C          1.8063940349       -0.0904340641       -1.8332135678
 C          1.0161500213       -0.5952548107       -0.8160373973
 H          0.5967739917        0.0854678089       -0.0917260224
 N          2.0720253653        1.2860470525       -1.8656176000
 S          2.1530661780        2.1556732644       -0.4429275083
 O          0.8360812068        2.3546158679        0.1085642216
 O          2.8718249690        3.3589149621       -0.8050073344
 C          3.1613643386        1.1613779465        0.6431854392
 C          2.6221954106        0.5570517026        1.7599500478
 C          3.4344879008       -0.2468324321        2.5450056099
 C          4.7650348111       -0.4301399363        2.2038408838
 C          5.2960200419        0.1929046557        1.0841926044
 C          4.4881501889        0.9936217663        0.2946096384
 H          4.8664140444        1.5027879491       -0.5768095809
 H          6.3328304057        0.0535657799        0.8241409595
 H          5.3904828199       -1.0598801525        2.8165692639
 H          3.0126829336       -0.7282915971        3.4131575757
 H          1.5822155087        0.7099917582        2.0054011081
 H          2.7552722914        1.5848342288       -2.5447478342
 H          2.9316339117       -0.5692861143       -3.5963150846
 H          2.3931789592       -2.9713407158       -3.4758356802
 H          0.9867899970       -3.8516983429       -1.6699914272
 H          0.4749227814       -2.2471988022        1.3468930612
 C         -0.5188951347       -3.8589580482        0.4028858208
 C         -1.8362232881       -4.3338515161        0.9380387844
 C         -1.5586312743       -4.3960616103       -0.5324409981
 H         -1.3927813387       -5.3651519824       -0.9801967784
 H         -2.0534874893       -3.6903648928       -1.1799661462
 H         -1.8583976840       -5.2551577675        1.5009548606
 H         -2.5303641114       -3.5865548446        1.2954814833
 H          0.3325453382       -4.5023940506        0.6019762960
