  62
        -98.93585471
 C         -1.5244830000       -1.3401595180        0.2070425742
 C         -1.6574956910       -0.0242841143        0.7140231345
 C         -2.7874579650        0.7790305739        0.2177780156
 C         -3.6395783474        0.2329180117       -0.6697802024
 C         -4.8455746597        0.8092314734       -1.3818015772
 C         -5.4712282181        2.1226292944       -0.9201062295
 C         -6.1534425106        2.0590434326        0.4460214020
 H         -6.4707090465        3.0681506443        0.7178036840
 H         -7.0507149271        1.4412418877        0.3578468612
 C         -5.3080711488        1.4821440149        1.5788299304
 H         -5.9175623564        1.4867901337        2.4866681658
 H         -5.0648040501        0.4399562364        1.3616985155
 C         -4.0174381137        2.2400175955        1.8834359873
 H         -4.2437504406        3.2918827499        2.0688022350
 H         -3.5995152155        1.8216518979        2.8032450336
 C         -2.9271129594        2.1560750855        0.8011500217
 H         -3.0938810630        2.8915982060        0.0173541126
 H         -1.9686282021        2.3884300843        1.2752912689
 H         -6.2361561298        2.3792175804       -1.6580038584
 H         -4.7341546558        2.9198094868       -0.9413981617
 H         -4.5458769918        0.9176989141       -2.4299693786
 H         -5.6071780545        0.0232659353       -1.3607995732
 O         -3.4757419365       -1.0414262882       -1.1259845298
 C         -2.4271850434       -1.8566509758       -0.7216239408
 O         -2.4355203215       -2.9795692227       -1.2559507452
 H          2.0925973148       -1.1372227356        1.3574925409
 C          2.0140135924       -1.3742823705        0.3072795456
 C          0.8415762591       -1.9119357144       -0.2012236275
 C          0.7661234333       -2.1920656013       -1.5633205838
 C          1.8481224998       -1.9476114472       -2.3878819952
 C          3.0125524485       -1.3972474780       -1.8790991443
 C          3.0930644167       -1.1022241361       -0.5241709132
 N          4.2572191754       -0.5332488812        0.0228216301
 S          4.1076966931        0.8494298228        0.9612770704
 O          5.4519880677        1.3788688708        1.0376545659
 O          3.4826743145        0.5246669659        2.2162224586
 C          3.0877891485        1.9349720063       -0.0194955078
 C          1.7142735544        1.9140616780        0.1117151701
 C          0.9541595619        2.7106308360       -0.7314417023
 C          1.5710787223        3.5100674680       -1.6801301470
 C          2.9533946918        3.5237475172       -1.7941747142
 C          3.7191857846        2.7247423033       -0.9621341526
 H          4.7960941007        2.7094044875       -1.0118536757
 H          3.4328089276        4.1501091267       -2.5291329674
 H          0.9709072130        4.1264165908       -2.3308397058
 H         -0.1203610828        2.6902452656       -0.6355688235
 H          1.2427149696        1.2935251205        0.8578720530
 H          5.0056308999       -0.4145842624       -0.6457734110
 H          3.8527367359       -1.1968596915       -2.5264410352
 H          1.7811303752       -2.1766870101       -3.4406672315
 H         -0.1495833229       -2.6024357078       -1.9620256626
 C         -0.3379420750       -2.1448832294        0.7078662426
 H         -0.0889992335       -1.7010178367        1.6852604139
 C         -0.6502432359       -3.6152533629        0.9455370938
 C          0.0027318783       -4.7371085751        0.2001790981
 C          0.3644911092       -4.4828952587        1.6305678419
 H          0.0299463730       -5.1775902688        2.3861027875
 H          1.3315282718       -4.0449294003        1.8309597847
 H         -0.6057939098       -5.5961858978       -0.0378472342
 H          0.7313475554       -4.4972560391       -0.5576898532
 H         -1.6869519097       -3.7706627149        1.2254943446
 O         -0.8540201591        0.4670128442        1.5527042127
