  62
        -98.94498975
 C          1.8910407732        0.7140738865       -0.1908926928
 C          2.4621956325        0.1242704263        0.9615809073
 C          3.5342730055       -0.8472636702        0.7190681271
 C          3.8768863253       -1.1605909896       -0.5439447305
 C          4.9309429215       -2.1530784483       -0.9539923224
 C          6.3551222943       -1.5808591950       -0.9693857051
 C          6.9702587152       -1.3280006622        0.4076715697
 H          6.8859147289       -2.2310001137        1.0132049086
 H          8.0342597510       -1.1382852757        0.2529060392
 C          6.3618416541       -0.1389334146        1.1642474434
 H          5.8093144255        0.4931624162        0.4652723685
 H          7.1627495193        0.4733209355        1.5846706582
 C          5.4364463856       -0.5276295907        2.3172502240
 H          5.0344468144        0.3884002046        2.7575206042
 H          6.0092625014       -1.0481867462        3.0879511653
 C          4.2537401593       -1.4141979530        1.9056911341
 H          4.5977093381       -2.4267648876        1.6953403628
 H          3.5462271181       -1.4506974555        2.7378823576
 H          6.9873117897       -2.2964725159       -1.5001336271
 H          6.3515809164       -0.6514329304       -1.5434470493
 H          4.8935678889       -3.0218088441       -0.2958567932
 H          4.6775392203       -2.4737249118       -1.9668766363
 O          3.2675991952       -0.6090116449       -1.6268459624
 C          2.2749846833        0.3510218259       -1.4821356936
 O          1.8225876727        0.7858396717       -2.5572515034
 O          2.0862384585        0.3893010549        2.1357167061
 C          0.7962019976        1.7514594862       -0.0184191304
 C         -0.4856304528        1.2572402624       -0.6425390058
 C         -1.2581872094        2.0121328039       -1.5143350504
 C         -2.4179348209        1.4858888039       -2.0584387840
 C         -2.8375994151        0.2085339396       -1.7386514885
 C         -2.0836939605       -0.5470438805       -0.8483697390
 C         -0.9243176306       -0.0177630659       -0.3039584421
 H         -0.3360607063       -0.6096720653        0.3864436604
 N         -2.5096916325       -1.8393021042       -0.5000079721
 S         -4.1329011937       -2.0748496589       -0.1705558765
 O         -4.1741353716       -3.1999341737        0.7372663142
 O         -4.8607154265       -2.2370826382       -1.4045963777
 C         -4.6690766969       -0.5852962115        0.6528791375
 C         -5.6658858272        0.1893619180        0.0956775028
 C         -6.0461804609        1.3566509505        0.7384045343
 C         -5.4232626434        1.7287987782        1.9193019683
 C         -4.4257265595        0.9377100104        2.4687893408
 C         -4.0429555705       -0.2312492858        1.8316274392
 H         -3.2734312934       -0.8693151826        2.2363308201
 H         -3.9417965341        1.2279649544        3.3876161230
 H         -5.7161258025        2.6399150722        2.4166552381
 H         -6.8229997936        1.9723376560        0.3146461277
 H         -6.1212157388       -0.1362173865       -0.8253587985
 H         -1.9227374425       -2.2984344735        0.1802031033
 H         -3.7264706130       -0.2213222141       -2.1709784974
 H         -3.0011543662        2.0786778007       -2.7462077104
 H         -0.9469965749        3.0086947988       -1.7797518189
 H          0.6375017815        1.8268656949        1.0677871126
 C          1.2514099491        3.0984650221       -0.5378565385
 C          0.6895018766        4.3600587915        0.0440696498
 C          2.1027252403        3.9618124309        0.3427376600
 H          2.9065231256        4.5243458823       -0.1081065040
 H          2.3332424206        3.5887211494        1.3301111708
 H          0.5238379858        5.2012770263       -0.6117873454
 H         -0.0405882233        4.2641854395        0.8331557639
 H          1.4861498611        3.0792818934       -1.5960851797
