  62
        -98.93442139
 C         -2.2881342557       -0.6190569535        0.2776626343
 C         -3.4897564010       -0.5938157035        1.0289044130
 C         -4.4620950002        0.4652237715        0.7067415142
 C         -4.1600980411        1.3667280346       -0.2456367990
 C         -4.9174958074        2.5754524853       -0.7547462161
 C         -6.3864173560        2.7842236444       -0.3970300885
 C         -7.3456243710        1.7731631526       -1.0248717617
 H         -8.3432014435        1.9474861634       -0.6160343862
 H         -7.3900915852        1.9597156963       -2.1008813399
 C         -6.9774878487        0.3046476835       -0.8284831661
 H         -7.7305865570       -0.3003664521       -1.3407709313
 H         -6.0192635294        0.0994589721       -1.3103574716
 C         -6.9143865385       -0.1649744657        0.6235012541
 H         -6.7969912119       -1.2521763603        0.6136247121
 H         -7.8568526217        0.0634739726        1.1249382750
 C         -5.7614258294        0.4180779329        1.4582258998
 H         -5.5960177535       -0.2429891820        2.3140768300
 H         -6.0149717893        1.4002214385        1.8499315040
 H         -6.6602890438        3.7743138943       -0.7715316224
 H         -6.5108326058        2.8113042041        0.6815111262
 H         -4.3491241985        3.4457608914       -0.4085311928
 H         -4.8135181299        2.5555186250       -1.8443570506
 O         -2.9732097650        1.3267196585       -0.9165542779
 C         -2.0143425167        0.3488907048       -0.6885621473
 O         -1.0037008195        0.4694133982       -1.4039700000
 O         -3.7403168989       -1.4211347318        1.9458723715
 C         -1.2769407926       -1.7012619950        0.6140399703
 C          0.0831395819       -1.0869278955        0.8218085980
 C          0.3365649107       -0.3859499834        1.9972605013
 C          1.5619344832        0.2161476277        2.2101093875
 C          2.5580413103        0.1391464667        1.2524581861
 C          2.3155557921       -0.5571108761        0.0765105140
 C          1.0882503343       -1.1752627330       -0.1275154372
 H          0.9044799060       -1.6980007013       -1.0534040104
 N          3.3084935573       -0.6147752408       -0.9123256814
 S          4.8916213792       -0.9478682220       -0.4887007750
 O          5.4982574025       -1.4883332089       -1.6858350012
 O          4.9612915816       -1.7752399704        0.6937899163
 C          5.5965913286        0.6530217280       -0.1555841137
 C          6.2277371422        0.8920503133        1.0493009980
 C          6.7781532169        2.1430055224        1.2814282894
 C          6.6889333395        3.1272282382        0.3091556816
 C          6.0539495400        2.8703742763       -0.8969364670
 C          5.5024667106        1.6217821834       -1.1353110072
 H          5.0025615945        1.3829563588       -2.0593307872
 H          5.9857768091        3.6383066322       -1.6506555424
 H          7.1166251665        4.1004088024        0.4918508799
 H          7.2725514826        2.3446225355        2.2181498034
 H          6.2690204867        0.0981679239        1.7781152046
 H          3.0294277829       -1.0973515622       -1.7530633287
 H          3.5134169916        0.6131809364        1.4075631153
 H          1.7434506076        0.7561239398        3.1270655444
 H         -0.4453817956       -0.3137418683        2.7408982002
 H         -1.6203677125       -2.1001482424        1.5826260563
 C         -1.2598546085       -2.8768697069       -0.3514863697
 C         -2.5337690522       -3.3795278835       -0.9602320391
 C         -1.4948884675       -2.7330434136       -1.8241662807
 H         -0.9251635169       -3.3611707733       -2.4941785477
 H         -1.6858342427       -1.7448754097       -2.2119729738
 H         -2.6827486206       -4.4457586944       -1.0404655713
 H         -3.4366669925       -2.8258854685       -0.7477100472
 H         -0.5393866432       -3.6315077215       -0.0483710282
