  62
        -98.93773759
 C         -1.2240105463       -1.4509191375        0.2919649052
 C         -1.7721290768       -0.4956910412        1.1807503780
 C         -3.0072647358        0.1934649816        0.7607557057
 C         -3.5132678258       -0.0772174458       -0.4563032818
 C         -4.7389849415        0.5003424605       -1.1140847501
 C         -4.5157352202        1.9248718397       -1.6426266510
 C         -3.8038850753        2.8631207698       -0.6719503117
 H         -2.8196223615        2.4550193185       -0.4317288752
 H         -3.6346941826        3.8107775997       -1.1907842620
 C         -4.5656581694        3.1652675169        0.6169220376
 H         -5.5404672990        3.5886306602        0.3646191697
 H         -3.9989759719        3.9319768628        1.1516287803
 C         -4.7763090394        1.9841498025        1.5681349944
 H         -5.5967168737        1.3519012428        1.2389809306
 H         -5.0721831012        2.3973077384        2.5367762838
 C         -3.5306953607        1.1393910538        1.8143885034
 H         -2.6942662699        1.8004578935        2.0707049697
 H         -3.6951032289        0.5235827990        2.7069024732
 H         -5.4847058546        2.3468515271       -1.9157867918
 H         -3.9070931403        1.8600583914       -2.5481590595
 H         -5.5810168168        0.4714002399       -0.4288566942
 H         -4.9742884710       -0.1501599845       -1.9595980361
 O         -2.9082248136       -0.9485159795       -1.3128354111
 C         -1.7502346887       -1.6336831017       -0.9868300589
 O         -1.3123316010       -2.3516135399       -1.9051796359
 O         -1.2468266949       -0.2181980237        2.2936739063
 C          0.0538329305       -2.1531866136        0.7120695668
 C          1.1245143150       -1.9360758669       -0.3278352439
 C          1.9199725473       -2.9407577476       -0.8616470688
 C          2.8985993721       -2.6335024957       -1.7920964925
 C          3.1243189694       -1.3277073336       -2.1876948942
 C          2.3306613436       -0.3151499439       -1.6600159794
 C          1.3399025092       -0.6296496075       -0.7465578720
 H          0.7050073465        0.1579936465       -0.3705436690
 N          2.5184019471        1.0279760477       -2.0200188768
 S          2.2803578519        2.2158114234       -0.8676013072
 O          0.8722351984        2.4541372608       -0.6692581646
 O          3.0446198685        3.3444124147       -1.3559324319
 C          3.0364989849        1.5717303224        0.6153714484
 C          2.2694104587        1.2077797840        1.7028079694
 C          2.8970936419        0.6626800558        2.8123435771
 C          4.2723809347        0.4928335968        2.8169322791
 C          5.0313838889        0.8735335564        1.7203912567
 C          4.4095663026        1.4155593561        0.6081933291
 H          4.9662925494        1.7330161138       -0.2584302030
 H          6.1017656781        0.7460288992        1.7284792992
 H          4.7539799440        0.0636112305        3.6812736679
 H          2.2998205292        0.3683356544        3.6607994476
 H          1.1991742363        1.3433629153        1.6746610217
 H          3.3242939185        1.2104333123       -2.5991912630
 H          3.8938243849       -1.0924946963       -2.9067433659
 H          3.5022038674       -3.4246826786       -2.2101362150
 H          1.7617053837       -3.9653326873       -0.5682909537
 H          0.3689976851       -1.6051927872        1.6173056711
 C         -0.1144879536       -3.6055274891        1.1307723933
 C         -1.4476976244       -4.1417799250        1.5570748191
 C         -0.8223715604       -4.6167842335        0.2814662348
 H         -0.4291710682       -5.6225704865        0.2501030556
 H         -1.2382789056       -4.2784462464       -0.6538948803
 H         -1.4850350523       -4.8172585748        2.3986802516
 H         -2.2983576347       -3.4785334198        1.4898166783
 H          0.7425833605       -3.9635759375        1.6929654965
