  62
        -98.93390842
 C         -2.3934461407       -0.8436024301        0.2866017701
 C         -2.7678472408        0.4609004898       -0.1064402301
 C         -4.1852416309        0.8311311796        0.0883446598
 C         -5.0222274708       -0.0704409504        0.6351384399
 C         -6.4986726908        0.0658886094        0.8971461599
 C         -7.3414441708       -0.0749138509       -0.3807251301
 C         -6.7992151008        0.6775415990       -1.5930195302
 H         -5.7848291308        0.3338232191       -1.8039214002
 H         -7.4174118608        0.4094063387       -2.4538989702
 C         -6.8049389411        2.1994169290       -1.4701764605
 H         -6.4767214911        2.6031128789       -2.4313994606
 H         -7.8283751511        2.5406644589       -1.2990456606
 C         -5.9084797312        2.7872527193       -0.3782121906
 H         -6.3642408812        2.6814762294        0.6025043894
 H         -5.8274205913        3.8615288293       -0.5681055208
 C         -4.4836279211        2.2419659595       -0.3588130905
 H         -3.8706044012        2.8880934597        0.2812675494
 H         -4.0490661711        2.3373584694       -1.3604550705
 H         -8.3564815608        0.2618245490       -0.1636253602
 H         -7.3854886106       -1.1354375210       -0.6402856499
 H         -6.7701578507       -0.7397619205        1.5828519500
 H         -6.7039324310        1.0083679195        1.3957494897
 O         -4.6103012506       -1.3172557103        1.0071906701
 C         -3.3062583406       -1.7370774702        0.8440954602
 O         -3.0825635404       -2.9021176001        1.2333637304
 O         -1.9607434509        1.2901241598       -0.6038040802
 C         -0.9638731906       -1.3134804000        0.1046718102
 C          0.0075400893       -0.4260391797        0.8456352601
 C         -0.3190450608        0.0462775005        2.1142327500
 C          0.5687538690        0.8276113307        2.8281088299
 C          1.8140037090        1.1322333908        2.3070467399
 C          2.1537759791        0.6594197306        1.0458833999
 C          1.2499616992       -0.1057630096        0.3213192400
 H          1.5426956493       -0.4555437197       -0.6545722999
 N          3.4059788891        0.9495202607        0.4806823799
 S          4.1508154593       -0.2535782794       -0.4432878799
 O          3.6957548893       -0.1441218796       -1.8063440799
 O          3.9760531194       -1.5413503093        0.1888635403
 C          5.8568357492        0.2571980509       -0.3356221799
 C          6.6738886392       -0.3220893688        0.6170537402
 C          7.9915405992        0.0964452614        0.7147493601
 C          8.4667970291        1.0835772813       -0.1355032400
 C          7.6351315290        1.6552605610       -1.0870762701
 C          6.3167270091        1.2408637208       -1.1908398001
 H          5.6368564690        1.6492663406       -1.9203584902
 H          8.0093254489        2.4201815809       -1.7482079702
 H          9.4927511890        1.4071920814       -0.0580710900
 H          8.6411506292       -0.3485663184        1.4511662802
 H          6.2634205693       -1.0928511188        1.2495203003
 H          4.0472079590        1.3711056809        1.1385608699
 H          2.5121844689        1.7333579110        2.8695171398
 H          0.2942200690        1.1923139708        3.8066990698
 H         -1.2839951008       -0.2065832596        2.5331347200
 H         -0.9126871305       -2.3144272399        0.5611190104
 C         -0.6439332406       -1.4400753302       -1.3711697198
 C          0.3313934596       -2.4707853501       -1.8517459896
 C         -1.1325120604       -2.6401042104       -2.1231334196
 H         -1.4896536804       -2.5069534406       -3.1332389896
 H         -1.6732920903       -3.3884486003       -1.5617022595
 H          0.9866563796       -2.2160556202       -2.6719136396
 H          0.7915773397       -3.1085045099       -1.1112737795
 H         -0.6665514807       -0.4839971003       -1.8827055799
