  62
        -98.94803519
 C          1.2698567136        1.0522156937        0.0115681943
 C          1.6186619503       -0.0506551574        0.8264274785
 C          2.6541729086       -0.9443749983        0.2939331900
 C          3.1545942911       -0.7107484893       -0.9330133244
 C          4.2422183256       -1.5157351048       -1.5822452523
 C          5.6285659710       -0.9365613960       -1.2667555650
 C          5.8584873887       -0.6584451726        0.2186860402
 H          5.1852952951        0.1398017277        0.5391184995
 H          6.8782088644       -0.2822886822        0.3248590344
 C          5.6660036186       -1.8788750680        1.1296207781
 H          6.4910781583       -1.9169350330        1.8439455355
 H          5.7076061413       -2.7936598830        0.5373068661
 C          4.3717044050       -1.8630147350        1.9448117967
 H          4.2808951981       -0.9079335312        2.4681460631
 H          4.4375809208       -2.6477824773        2.7030762731
 C          3.0805649291       -2.1023334184        1.1516371621
 H          2.2702573973       -2.2566783997        1.8706464682
 H          3.1767762693       -3.0097066507        0.5510917920
 H          5.7426627244        0.0024646587       -1.8132097062
 H          6.3844110713       -1.6352574776       -1.6299796273
 H          4.0851240234       -1.4954908916       -2.6621856782
 H          4.1781560887       -2.5462567005       -1.2375173929
 O          2.7523123823        0.3245320870       -1.7132774877
 C          1.8004687479        1.2299384736       -1.2657194052
 O          1.5203596095        2.1262369196       -2.0843326601
 O          1.0842011186       -0.2776379946        1.9462903697
 C          0.2123129512        2.0221138397        0.5027427750
 C         -1.0208868926        1.9501111526       -0.3652346943
 C         -1.7929985083        3.0583176144       -0.6912717562
 C         -2.9310481497        2.9133153072       -1.4660299637
 C         -3.3396680390        1.6676830992       -1.9072409753
 C         -2.5770223767        0.5521133498       -1.5809875679
 C         -1.4276328332        0.7048545032       -0.8234390829
 H         -0.8284264202       -0.1653416464       -0.6052768230
 N         -2.9488190092       -0.7349263333       -1.9976608330
 S         -2.6746736591       -2.0358396525       -0.9823707251
 O         -1.2786639834       -2.3962014968       -0.9873809097
 O         -3.5876735396       -3.0535454392       -1.4592418811
 C         -3.1946932588       -1.4715728676        0.6285682266
 C         -2.2766745929       -1.2009376349        1.6219088471
 C         -2.7320746754       -0.7115918863        2.8368601096
 C         -4.0869100515       -0.5029434386        3.0381544804
 C         -4.9985323588       -0.7888460622        2.0326106552
 C         -4.5500543812       -1.2746368857        0.8161867466
 H         -5.2272602878       -1.5198514855        0.0142104225
 H         -6.0529387723       -0.6314814149        2.1924592979
 H         -4.4332067725       -0.1181765543        3.9843956991
 H         -2.0145257123       -0.4921626794        3.6115690997
 H         -1.2242848423       -1.3625226480        1.4470213005
 H         -3.8457054596       -0.7945819166       -2.4565262145
 H         -4.2307416991        1.5575024719       -2.5057320915
 H         -3.5151594246        3.7838637937       -1.7227158471
 H         -1.4990888290        4.0361057603       -0.3466371410
 H         -0.0686953272        1.6617538185        1.5047646990
 C          0.7803652608        3.4203303534        0.6303165492
 C          0.2763878414        4.3499358090        1.6925691551
 C          1.6413339783        3.7443224782        1.8135002964
 H          2.5048201857        4.3754041140        1.6659104692
 H          1.7926088691        2.9631362963        2.5443607029
 H          0.2043321630        5.4025483040        1.4638164801
 H         -0.4975153229        3.9854218303        2.3508922950
 H          1.0675769180        3.8399027669       -0.3270899381
