  62
        -98.94493288
 C         -2.1869226189       -0.9985941100        0.5285623172
 C         -2.2559048097       -0.1635809278       -0.6133383218
 C         -3.0097253813        1.0851326688       -0.4426176935
 C         -3.5408953886        1.3896525687        0.7552068599
 C         -4.3170327856        2.6345861245        1.0900407686
 C         -5.8034844998        2.5645636611        0.7133646534
 C         -6.1013958883        2.6480997035       -0.7842421934
 H         -7.1759463396        2.8110204520       -0.8877285149
 H         -5.5980378817        3.5189474606       -1.2053124198
 C         -5.7139597199        1.3929598454       -1.5786033471
 H         -6.5309599689        1.1205025845       -2.2502889400
 H         -5.5716077714        0.5561472759       -0.8910330891
 C         -4.4566473590        1.5477614666       -2.4344559906
 H         -4.6327007276        2.2905675073       -3.2155879605
 H         -4.2510100743        0.5904543784       -2.9198450227
 C         -3.2051153851        1.9560794326       -1.6464998560
 H         -2.3318616189        1.8281351024       -2.2915503492
 H         -3.2690640194        3.0038237119       -1.3526442739
 H         -6.3031429210        3.4003876534        1.2084344867
 H         -6.2223357410        1.6401201564        1.1173869364
 H         -3.8560375934        3.4948931738        0.6034407783
 H         -4.2416917192        2.7662347414        2.1717458746
 O         -3.4074532551        0.5824014269        1.8421788855
 C         -2.7397574527       -0.6295978247        1.7536744634
 O         -2.6963250484       -1.2712944408        2.8240045754
 O         -1.7189482056       -0.4431339076       -1.7159339188
 C         -1.4426727726       -2.3204224451        0.4534892097
 C         -0.0012833158       -2.0618391877        0.0856392753
 C          0.6631783460       -2.7172647774       -0.9416309429
 C          1.9777542869       -2.4001463699       -1.2390228452
 C          2.6579568629       -1.4360427790       -0.5185181675
 C          2.0054886937       -0.7813139216        0.5183232257
 C          0.6907894109       -1.1018040840        0.8145179886
 H          0.1804759991       -0.5854099643        1.6197268587
 N          2.6940629642        0.1954793062        1.2654662783
 S          3.3324567204        1.4946461520        0.4076503345
 O          3.4278927356        2.5715016139        1.3701226120
 O          2.5710465343        1.7687635058       -0.7892704464
 C          4.9735165265        0.9511130727       -0.0180319318
 C          5.8226474821        0.5814383754        1.0067739102
 C          7.1047429582        0.1594683462        0.6932021522
 C          7.5141564576        0.1172782731       -0.6314449179
 C          6.6504910306        0.4948075649       -1.6483113882
 C          5.3660144817        0.9168659804       -1.3416990753
 H          4.6565721333        1.2132698012       -2.0979185575
 H          6.9702866604        0.4611319506       -2.6774241532
 H          8.5123830914       -0.2120483997       -0.8729763759
 H          7.7791087477       -0.1350598424        1.4810389158
 H          5.4651577440        0.6327866646        2.0216189829
 H          2.1620987523        0.5387265003        2.0530833609
 H          3.6793073594       -1.1829040576       -0.7515697822
 H          2.4790882118       -2.9107138457       -2.0469932802
 H          0.1483172342       -3.4666789100       -1.5196622695
 H         -1.4657154977       -2.7417615879        1.4691942472
 C         -2.1524185953       -3.2709719650       -0.4871802237
 C         -2.0326235994       -4.7520076346       -0.2944393951
 C         -3.3207086668       -4.0563644787        0.0253648028
 H         -4.1672741576       -4.2072318785       -0.6275194966
 H         -3.5894434526       -3.9237189223        1.0635847161
 H         -1.9976609216       -5.3845567116       -1.1684586113
 H         -1.4285134222       -5.1016153300        0.5289269782
 H         -2.2134246814       -2.8865571397       -1.4987305618
