  62
        -98.93795944
 C         -2.2231719881       -1.0281799402       -0.5256627676
 C         -3.6145458770       -1.0377922473       -0.2370171076
 C         -4.3422350039        0.2113476205       -0.4816088618
 C         -3.6804188851        1.2869965048       -0.9436231723
 C         -4.2806434067        2.6291380135       -1.2628543695
 C         -4.4229365680        3.5526887202       -0.0454084777
 C         -5.5274884038        3.1647979627        0.9383978702
 H         -5.6600984283        4.0078661456        1.6193491412
 H         -6.4648375463        3.0327912728        0.3970640292
 C         -5.2263039118        1.9065802990        1.7648438213
 H         -4.1564876312        1.6878433829        1.7196043243
 H         -5.4680753690        2.0935974413        2.8136235833
 C         -6.0058478817        0.6633243899        1.3356361271
 H         -5.6877879826       -0.1730915167        1.9632333549
 H         -7.0728935647        0.8241319858        1.5043732587
 C         -5.7985458348        0.2605406311       -0.1303379205
 H         -6.3250618164        0.9514678968       -0.7883942939
 H         -6.2100692710       -0.7418344872       -0.2713824907
 H         -3.4646348185        3.5904097914        0.4783821649
 H         -4.6357938707        4.5564066206       -0.4205835410
 H         -5.2546026059        2.4925722841       -1.7336266539
 H         -3.6100848219        3.1068752488       -1.9804155406
 O         -2.3473930489        1.2643613664       -1.1979448514
 C         -1.5783492158        0.1258099972       -0.9769379647
 O         -0.3725632928        0.2931247162       -1.2384702076
 O         -4.2222259968       -2.0493332056        0.2031545038
 C         -1.4539113377       -2.3057980179       -0.2293864272
 C         -0.3070710703       -1.9910175679        0.6954975134
 C         -0.5366384811       -1.8855804210        2.0638680214
 C          0.4817686506       -1.5198346446        2.9247398457
 C          1.7435998455       -1.2327739087        2.4350605646
 C          1.9762421878       -1.3205610139        1.0693946108
 C          0.9627733763       -1.7231027046        0.2102732553
 H          1.1501505767       -1.7802767380       -0.8505572323
 N          3.2499152822       -0.9983183964        0.5623812257
 S          3.9517806534        0.4094239001        1.1851472799
 O          4.7194110002        0.0466903646        2.3526621151
 O          2.9505132685        1.4310680142        1.3910913686
 C          5.0500964357        0.8751840342       -0.1387938383
 C          6.3918597435        0.5554802783       -0.0632112920
 C          7.2245481393        0.9115417497       -1.1126318560
 C          6.7038018925        1.5748841187       -2.2133209717
 C          5.3537697101        1.8880341854       -2.2751643161
 C          4.5153444408        1.5352440625       -1.2296730196
 H          3.4609589946        1.7664760968       -1.2340351501
 H          4.9504028526        2.4044255033       -3.1314802286
 H          7.3529468561        1.8525811600       -3.0286142571
 H          8.2745109194        0.6714379828       -1.0683632658
 H          6.7500891832        0.0444495284        0.8151451531
 H          3.2458009125       -0.9733357700       -0.4487722836
 H          2.5431579343       -0.9168061329        3.0865846648
 H          0.2904843161       -1.4448640089        3.9848960778
 H         -1.5297327127       -2.0802737185        2.4452882604
 H         -2.1748390373       -2.9303852559        0.3220160390
 C         -1.0321139302       -3.1118578572       -1.4484970266
 C         -1.9734053072       -3.2822816008       -2.6027276219
 C         -0.7048810209       -2.5054400542       -2.7785132007
 H          0.0913345698       -2.9532038297       -3.3555672188
 H         -0.7654777019       -1.4337151838       -2.8794677826
 H         -2.0548604282       -4.2535911352       -3.0665339533
 H         -2.9038419594       -2.7343253695       -2.5648053856
 H         -0.4542811302       -3.9860285124       -1.1631253155
