  62
        -98.93681797
 C         -2.1007174293       -1.3559941200       -0.0261280110
 C         -2.8464673394       -0.6151873906        0.9172146493
 C         -3.6091725898        0.5381493094        0.4052733398
 C         -3.5107574199        0.8565619300       -0.8981377101
 C         -4.1858901103        1.9752099901       -1.6509223996
 C         -4.2059307006        3.3525045498       -0.9698696891
 C         -5.5954562307        3.7728707092       -0.4871987589
 H         -5.6269627210        4.8627740192       -0.4230629684
 H         -6.3291644207        3.4690761493       -1.2366152589
 C         -6.0057757705        3.2180104586        0.8757422610
 H         -7.0556842605        3.4749470582        1.0342317911
 H         -5.4278130206        3.7164590785        1.6570409411
 C         -5.8402452301        1.7062889386        1.0433977804
 H         -6.1479262700        1.1853873388        0.1375841102
 H         -6.5121945499        1.3834110781        1.8412927503
 C         -4.4162813299        1.2831462888        1.4338012701
 H         -3.8450501701        2.1559997288        1.7643936104
 H         -4.4562423397        0.6083937485        2.2947486499
 H         -3.8657396009        4.0887548402       -1.7000898988
 H         -3.4947122506        3.3690700597       -0.1450165891
 H         -5.2063157902        1.6652437799       -1.8897315097
 H         -3.6492333304        2.0392498106       -2.6003040696
 O         -2.7464560498        0.1343303605       -1.7669442604
 C         -2.0241923895       -0.9765489295       -1.3657618409
 O         -1.3741893094       -1.5231588689       -2.2757092911
 O         -2.8749447793       -0.9023539710        2.1461057092
 C         -1.2947287189       -2.5538269000        0.4467891185
 C          0.1733369710       -2.2533626895        0.2686808185
 C          1.0490439712       -3.0538071990       -0.4511233819
 C          2.3724382110       -2.6770422086       -0.6083482418
 C          2.8509330308       -1.5063090286       -0.0497760314
 C          1.9850275706       -0.7037667392        0.6821481490
 C          0.6631730307       -1.0842571796        0.8397895989
 H         -0.0128879894       -0.4532355000        1.4047210292
 N          2.4649276403        0.4912444908        1.2592584994
 S          3.0508185099        1.6437045313        0.1802296298
 O          2.9168108696        2.9101615510        0.8683232803
 O          2.4034707699        1.5414614216       -1.1080651002
 C          4.7789198400        1.2423785519        0.0350765795
 C          5.5450354301        1.2373504216        1.1845434395
 C          6.8929906102        0.9312536520        1.0878268993
 C          7.4489520002        0.6406265626       -0.1493764209
 C          6.6666784901        0.6533932229       -1.2940751908
 C          5.3168232800        0.9568180925       -1.2042883206
 H          4.6666612400        0.9719013826       -2.0645811206
 H          7.1002370001        0.4274136434       -2.2549995009
 H          8.4983958902        0.4027502730       -0.2222211210
 H          7.5046190602        0.9201355519        1.9755051492
 H          5.0736844701        1.4736216011        2.1237860496
 H          1.7919666702        0.9248787403        1.8765284496
 H          3.8788808407       -1.2077721683       -0.1764579313
 H          3.0401496712       -3.3044956382       -1.1786441621
 H          0.6930848614       -3.9650090789       -0.9024998922
 H         -1.4983776888       -2.6352556104        1.5246686784
 C         -1.7529715686       -3.8237630998       -0.2357002520
 C         -1.5420810482       -5.1495923100        0.4304144875
 C         -2.9207110384       -4.5710631504        0.3327213578
 H         -3.6247997183       -5.0219909203       -0.3502691123
 H         -3.3758478284       -4.1746189208        1.2286903080
 H         -1.3008134680       -6.0030379097       -0.1847205229
 H         -1.0611132782       -5.1513025203        1.3967197075
 H         -1.6719776887       -3.7707944294       -1.3152069220
