  62
        -98.93107985
 C         -1.9647131504       -0.4076977906        0.6712154499
 C         -2.6784707406       -0.3691757800       -0.5522404900
 C         -3.4829834410        0.8407338698       -0.7792973091
 C         -3.4731558312        1.8370397593        0.1230901315
 C         -4.2252424916        3.1364319391        0.0196665524
 C         -5.6828781115        3.0528044684        0.4936795325
 C         -6.6291105214        2.2981062587       -0.4410628978
 H         -7.6458724914        2.5032248382       -0.1002384575
 H         -6.5365253817        2.6996093893       -1.4505396776
 C         -6.4145920010        0.7783210288       -0.4675261988
 H         -5.8290291008        0.4779693784        0.4044966110
 H         -7.3802138708        0.2730564984       -0.3937366589
 C         -5.7255349110        0.2570087397       -1.7286146192
 H         -5.5900539506       -0.8221661903       -1.6231635299
 H         -6.3657162812        0.4340155701       -2.5956012390
 C         -4.3508053112        0.8816762203       -2.0011026990
 H         -4.4654834016        1.9065959905       -2.3528250784
 H         -3.8549817711        0.2958542910       -2.7787462394
 H         -5.7014036812        2.5900572578        1.4831956422
 H         -6.0498006718        4.0764130282        0.5988800732
 H         -3.6966502917        3.8516860989        0.6536435827
 H         -4.1953892319        3.4960153198       -1.0092609074
 O         -2.7381919310        1.7790869488        1.2674545813
 C         -1.9923404706        0.6548083889        1.5765720305
 O         -1.4049002605        0.7205245684        2.6777922505
 O         -2.6602745605       -1.2810531095       -1.4153763606
 C         -1.1089662700       -1.6060895206        1.0670430890
 C         -0.0978221901       -1.8788009996       -0.0202234113
 C         -0.1916457199       -2.8391312490       -1.0197207318
 C          0.8109799200       -2.9697267681       -1.9661541221
 C          1.9260846397       -2.1551736378       -1.9444709217
 C          2.0195956796       -1.1673221384       -0.9695914711
 C          1.0146785296       -1.0400244192       -0.0253170709
 H          1.0995750095       -0.2662237797        0.7260449895
 N          3.1137615593       -0.2870927380       -0.9530572408
 S          3.6092293393        0.4022693112        0.5020874196
 O          3.6576972797       -0.6009325094        1.5421127790
 O          2.7958717290        1.5641359908        0.7638421604
 C          5.2627216391        0.9081749720        0.0654578497
 C          5.4336403686        2.0734613725       -0.6581129097
 C          6.7154471484        2.4526818331       -1.0238275196
 C          7.7988587687        1.6651670732       -0.6628860902
 C          7.6120372592        0.4997740427        0.0650338091
 C          6.3325272794        0.1140833021        0.4330880590
 H          6.1384963597       -0.7785881783        1.0056172385
 H          8.4561141694       -0.1085407972        0.3473315186
 H          8.7952490986        1.9636007637       -0.9481143802
 H          6.8647263581        3.3597711835       -1.5869353291
 H          4.5626991984        2.6573746824       -0.9070218892
 H          3.8927404693       -0.6109038575       -1.5094952511
 H          2.7074081396       -2.2664522371       -2.6806279419
 H          0.7185962501       -3.7245967777       -2.7323928125
 H         -1.0559840998       -3.4729319392       -1.0931243521
 H         -0.5271096200       -1.2526661509        1.9342692392
 C         -1.9873003896       -2.7246369312        1.6129433685
 C         -2.8867662695       -3.6054691909        0.8015467581
 C         -1.6864398892       -4.1874310610        1.4871362875
 H         -1.8506485889       -4.8110390216        2.3535470772
 H         -0.8370345892       -4.4814503804        0.8920658772
 H         -3.8629673093       -3.8274443815        1.2095079781
 H         -2.8925784096       -3.4796035003       -0.2684242519
 H         -2.3982424196       -2.4080407619        2.5698236587
