  62
        -98.94064311
 C          1.5543566341        1.1709116899        0.0087572702
 C          2.6632558168        0.9305793777        0.8557952311
 C          3.4189370853       -0.3117291145        0.6233264804
 C          3.0131495087       -1.1605597401       -0.3393215873
 C          3.5390144178       -2.5198412711       -0.7506014857
 C          4.9334732977       -2.9779311123       -0.3301814207
 C          6.0834042612       -2.1715834470       -0.9316862567
 H          7.0174695035       -2.5361424256       -0.4984504734
 H          6.1194700062       -2.3630515312       -2.0071987462
 C          6.0024470234       -0.6597156987       -0.7346058322
 H          5.1356624331       -0.2654576648       -1.2691121853
 H          6.8903015374       -0.2154094813       -1.1928676959
 C          5.9459684007       -0.1906295410        0.7183522208
 H          6.0648700944        0.8962516858        0.7161436864
 H          6.7834432965       -0.6161591055        1.2744829514
 C          4.6418404284       -0.5116200186        1.4707579064
 H          4.6611046899       -1.5161064813        1.8867799623
 H          4.5539087518        0.1874956243        2.3073402016
 H          5.0136198849       -3.0004654809        0.7525856972
 H          5.0384045692       -4.0097133656       -0.6767590554
 H          2.8121800580       -3.2485913323       -0.3749354530
 H          3.4688863859       -2.5472905909       -1.8425788898
 O          1.9235880854       -0.8958718376       -1.1169156552
 C          1.1839588363        0.2692489630       -0.9867235982
 O          0.2507878540        0.3667825880       -1.8058923491
 O          3.0061127262        1.7194876935        1.7758606500
 C          0.7285859494        2.4261222598        0.2402600862
 C         -0.6308236286        1.9775686913        0.7133401368
 C         -0.8001343675        1.5956247066        2.0417246982
 C         -2.0030651679        1.0747480880        2.4801800007
 C         -3.0549966237        0.8973785186        1.5975314123
 C         -2.8894989880        1.2644036588        0.2691148992
 C         -1.6946776067        1.8251917712       -0.1612468719
 H         -1.5840373707        2.0994937731       -1.1979173552
 N         -3.9296474442        1.0321746974       -0.6490857829
 S         -4.6583188041       -0.4733322881       -0.5879921414
 O         -5.0871582766       -0.7488752750       -1.9420189974
 O         -5.7094753466       -0.4521136480        0.4007050777
 C         -3.3991718107       -1.6363388881       -0.0809866410
 C         -3.6817253564       -2.5161174428        0.9450774764
 C         -2.7156009956       -3.4290936941        1.3349208202
 C         -1.4840208101       -3.4442743800        0.6984414320
 C         -1.2160860439       -2.5551656487       -0.3303345636
 C         -2.1806065875       -1.6438602727       -0.7298037744
 H         -1.9670105299       -0.9412771998       -1.5198402324
 H         -0.2570378153       -2.5482021498       -0.8249719736
 H         -0.7284299116       -4.1503352019        1.0055372425
 H         -2.9230210107       -4.1214948993        2.1348525515
 H         -4.6481538741       -2.4623598566        1.4197052668
 H         -3.6812069428        1.2664209120       -1.5996910192
 H         -3.9947675857        0.4746445857        1.9147130758
 H         -2.1213208909        0.7904655773        3.5145549243
 H          0.0324763870        1.6987252249        2.7233909313
 H          1.2263052066        2.9581483588        1.0615125427
 C          0.6971033346        3.3245560291       -0.9776199006
 C          0.2072117417        4.7339587621       -0.8363915836
 C          1.6626368979        4.4661081652       -1.0713503689
 H          2.0828060929        4.7068478790       -2.0364880354
 H          2.3487864930        4.6093155585       -0.2496040439
 H         -0.3734971929        5.1626879065       -1.6388911817
 H         -0.0971519279        5.0575527659        0.1474569337
 H          0.4689710052        2.7978335321       -1.8964853214
