  62
        -98.93969423
 C         -1.1280266936       -1.5193952701        0.5189947611
 C         -2.0849203409       -1.3373675980       -0.5072859669
 C         -3.1952870625       -0.4080177688       -0.2136619519
 C         -3.2417616183        0.2072839137        0.9798090807
 C         -4.2853888683        1.1680793056        1.4823111225
 C         -3.8914618665        2.6310626120        1.2213031076
 C         -4.2665587643        3.1704495863       -0.1594689161
 H         -5.3463863934        3.3289636725       -0.1979288170
 H         -3.7895737393        4.1474212493       -0.2653880628
 C         -3.8641412142        2.2915538517       -1.3464811895
 H         -2.8497598419        1.9161574460       -1.2064694170
 H         -3.8576125453        2.9197420869       -2.2391809724
 C         -4.8226377567        1.1136367405       -1.5754378084
 H         -5.7163515619        1.2542580986       -0.9680328144
 H         -5.1541538653        1.1124977593       -2.6158866420
 C         -4.2239599411       -0.2728029992       -1.3037602183
 H         -5.0363894427       -0.9791219502       -1.1012151022
 H         -3.7195387269       -0.6342510892       -2.2053913695
 H         -2.8141797723        2.7234691593        1.3786776721
 H         -4.3786532116        3.2588884386        1.9703529454
 H         -5.2537114925        0.9396067942        1.0465911022
 H         -4.3442834684        1.0159664522        2.5625026388
 O         -2.2732613510        0.0376492747        1.9247918850
 C         -1.2109784979       -0.8234183385        1.7272802742
 O         -0.4184292595       -0.8856229464        2.6899936337
 H          2.2271509201       -1.1007152880        1.0256377703
 C          2.1456832868       -1.2472689593       -0.0416016196
 C          1.0754307310       -1.9630104065       -0.5631205382
 C          1.0034371956       -2.1467464201       -1.9395856519
 C          1.9816100427       -1.6249346825       -2.7664941112
 C          3.0386675045       -0.9006568234       -2.2447589515
 C          3.1178732921       -0.7066075997       -0.8711893019
 N          4.1742358405        0.0327552228       -0.3083579092
 S          3.8017937720        1.2085654495        0.8250158610
 O          4.9326186642        2.1110096039        0.7940707514
 O          3.5152078020        0.5994105801        2.0973262180
 C          2.3596929146        2.0083300604        0.1491379378
 C          2.5427247222        2.8926653519       -0.8968884735
 C          1.4329683940        3.4542070171       -1.5057549706
 C          0.1614547001        3.1101306597       -1.0718031959
 C         -0.0027385829        2.2231611401       -0.0204758292
 C          1.1026450120        1.6665658872        0.6024864039
 H          0.9965017767        0.9805293493        1.4283540634
 H         -0.9881262319        1.9463863977        0.3200102134
 H         -0.7070336189        3.5342417930       -1.5510246357
 H          1.5591784046        4.1503630725       -2.3190409539
 H          3.5478125425        3.1355633964       -1.2018407639
 H          4.8320874658        0.3897535961       -0.9870226424
 H          3.7987020911       -0.4904128586       -2.8920311253
 H          1.9155972965       -1.7773823312       -3.8329201140
 H          0.1657320156       -2.6782890928       -2.3593681233
 C          0.0289733501       -2.4991488381        0.3846349311
 H          0.4857282831       -2.5494066635        1.3827899984
 C         -0.4476631131       -3.8879220561        0.0062684964
 C          0.4651814845       -5.0549923965        0.2255579378
 C         -0.7463467873       -4.8776395670        1.0898511707
 H         -1.5794837628       -5.5515974607        0.9572558663
 H         -0.6026609733       -4.5592042360        2.1125939272
 H          0.4661818367       -5.8533508458       -0.5004078565
 H          1.4323423212       -4.8558678362        0.6626984813
 H         -1.0892865413       -3.9040126849       -0.8646172991
 O         -2.0445550060       -1.9255534323       -1.6181835783
