  62
        -98.94607690
 C         -1.1116481403       -1.5225021104       -0.2256320097
 C         -1.1936402006       -0.1140415504       -0.3602934295
 C         -2.2850751106        0.5349536993        0.3796573808
 C         -3.0866565803       -0.1894389910        1.1789006209
 C         -4.2148553502        0.3382412586        2.0234568112
 C         -5.5364298504        0.5152028384        1.2628432415
 C         -5.5726949809        1.6902833085        0.2849428116
 H         -6.6150889711        1.8298217382       -0.0083838481
 H         -5.2548883211        2.5977538185        0.7993477717
 C         -4.7262190912        1.4881971488       -0.9795556386
 H         -5.3061962515        1.7845887687       -1.8563808584
 H         -4.4910296410        0.4276494489       -1.0937332587
 C         -3.4239268314        2.2882809891       -1.0053410188
 H         -2.8886474815        2.0417721793       -1.9253496389
 H         -3.6513536217        3.3564251491       -1.0209367786
 C         -2.4866745911        2.0062255492        0.1761916010
 H         -1.5098967112        2.4419835595       -0.0459052092
 H         -2.8749953510        2.4646274890        1.0859520511
 H         -6.3220834503        0.6646928681        2.0071336717
 H         -5.7573261603       -0.4115393116        0.7282669015
 H         -4.3710650398       -0.3908516315        2.8217371012
 H         -3.9211316303        1.2866360987        2.4748846612
 O         -2.9427546699       -1.5334735810        1.3270609107
 C         -1.9743477999       -2.2254336007        0.6205921904
 O         -1.9819788295       -3.4573848507        0.8249154603
 H          1.4392744894       -0.2634487698       -0.2105918902
 C          1.8652033697       -1.1914883097        0.1326151397
 C          1.2204728200       -2.3864799398       -0.1513596003
 C          1.7806716004       -3.5738268697        0.3044200695
 C          2.9545085705       -3.5597232395        1.0371148892
 C          3.5797684403       -2.3640768894        1.3424481192
 C          3.0248958099       -1.1718106295        0.8914515794
 N          3.6279930797        0.0633034406        1.1710214594
 S          2.6643547994        1.4012402904        1.4706327197
 O          3.5271223593        2.3023779805        2.2111914196
 O          1.4355966196        1.0359516300        2.1391986000
 C          2.3413566388        2.1295369905       -0.1205578701
 C          1.3254218886        3.0597266702       -0.1976709498
 C          1.0677332682        3.6754713103       -1.4111372997
 C          1.8307442280        3.3529991306       -2.5217565699
 C          2.8521563782        2.4215927208       -2.4260112002
 C          3.1160357487        1.8031560507       -1.2142458803
 H          3.8946321489        1.0652074909       -1.1127986206
 H          3.4407101581        2.1682607310       -3.2934501304
 H          1.6228112677        3.8265148306       -3.4685088998
 H          0.2683240080        4.3954985501       -1.4876690894
 H          0.7495813188        3.2703092700        0.6903601703
 H          4.4227090698        0.0274802408        1.7925589792
 H          4.4853902304       -2.3506270192        1.9297690089
 H          3.3799472608       -4.4880620594        1.3872024890
 H          1.2801193905       -4.5085664898        0.0981924195
 C         -0.0709245802       -2.3783305701       -0.9332429300
 H         -0.4721257200       -3.4011819002       -0.9286013900
 C          0.1775169193       -1.9644171199       -2.3708650600
 C          0.7420250794       -2.9682045496       -3.3287257303
 C         -0.6851480208       -2.5286331000       -3.4574255699
 H         -0.9586647711       -1.8875362500       -4.2817516398
 H         -1.4611983305       -3.2234537602       -3.1697016198
 H          0.9327055297       -3.9637465596       -2.9573115504
 H          1.4522666891       -2.6305469594       -4.0674121704
 H          0.4948020191       -0.9351100898       -2.4705685700
 O         -0.4162319210        0.5899660499       -1.0569167996
