  62
        -98.93782646
 C         -0.7359106251       -1.2675482328        0.3431404572
 C         -1.4577185987       -0.4685489383        1.2623075062
 C         -2.4068631129        0.5034160270        0.6929135186
 C         -2.4728768727        0.6400884058       -0.6424163983
 C         -3.4270315315        1.4926504165       -1.4322870524
 C         -4.6728109866        0.6810981323       -1.8293157595
 C         -5.7999396167        0.6821385294       -0.7974467708
 H         -6.2599097430        1.6721264630       -0.7685524511
 H         -6.5598658574       -0.0213585734       -1.1454380274
 C         -5.3869783483        0.2939366183        0.6246558843
 H         -4.7109712013       -0.5626794846        0.5911521638
 H         -6.2842040835       -0.0254776419        1.1585338243
 C         -4.7315005294        1.4466856134        1.3996131003
 H         -5.2265834814        1.5593393731        2.3664216617
 H         -4.8955625000        2.3780860562        0.8583270894
 C         -3.2327900135        1.2723582738        1.6874160338
 H         -2.7804382394        2.2587208982        1.8298466783
 H         -3.1037910077        0.7332725302        2.6313508288
 H         -4.3561161194       -0.3461832133       -2.0272047312
 H         -5.0710287552        1.0844582663       -2.7625019909
 H         -2.9022724208        1.7851670382       -2.3433077152
 H         -3.7033859551        2.3833613873       -0.8765855482
 O         -1.6766293794       -0.0675166561       -1.4875817891
 C         -0.8046143296       -1.0433421088       -1.0325452489
 O         -0.1679943888       -1.6117832297       -1.9380359383
 O         -1.3292809488       -0.5756588920        2.5125685386
 C          0.1923806900       -2.3299597989        0.9028274499
 C          1.5338878553       -2.2636694729        0.2176693841
 C          2.1513177923       -3.3460755388       -0.3938104356
 C          3.3810758567       -3.1902402361       -1.0099947676
 C          4.0144354386       -1.9623348147       -1.0334844318
 C          3.4015871846       -0.8703469006       -0.4268217473
 C          2.1802219842       -1.0336178925        0.2034930839
 H          1.7105195023       -0.1892320087        0.6878173714
 N          3.9871837582        0.3979890502       -0.4839124968
 S          3.5693130632        1.6382125759        0.5349405358
 O          4.5477020750        2.6687308078        0.2566340956
 O          3.4965352675        1.2068555959        1.9122424974
 C          1.9734301507        2.1996699273       -0.0209694535
 C          1.1117394032        2.7429011285        0.9110946724
 C         -0.0992974902        3.2617116252        0.4842840013
 C         -0.4298543663        3.2238647561       -0.8607953645
 C          0.4392242062        2.6612649267       -1.7822669337
 C          1.6565340751        2.1490813681       -1.3633775569
 H          2.3512858572        1.7056249572       -2.0574412608
 H          0.1736179347        2.6186875477       -2.8264205909
 H         -1.3694052353        3.6360429875       -1.1917023227
 H         -0.7770650997        3.6946067990        1.2025354879
 H          1.4011562353        2.7407128726        1.9502817875
 H          4.9187048646        0.4594672769       -0.8627017165
 H          4.9670487808       -1.8408132536       -1.5256684812
 H          3.8503685537       -4.0382031973       -1.4855029789
 H          1.6636195627       -4.3065905686       -0.4094497134
 H          0.3419318698       -2.0364824161        1.9562741192
 C         -0.4089367268       -3.7280740363        0.9220017404
 C         -1.8933688859       -3.9343966356        0.9383525756
 C         -1.0983087909       -4.3128055066       -0.2731542267
 H         -0.9573406502       -5.3627204060       -0.4844772655
 H         -1.1735366687       -3.6953098342       -1.1543415149
 H         -2.2941241099       -4.7205989540        1.5605893863
 H         -2.5222047220       -3.0574594605        0.8852612616
 H          0.1733660866       -4.4119574810        1.5320579156
