  62
        -98.94230202
 C         -0.6951607103       -1.5099623102        0.1252603692
 C         -1.4204593604       -0.5586068807        0.8756864998
 C         -2.3163844701        0.3303085800        0.1176116302
 C         -2.3515147898        0.2375278109       -1.2231328199
 C         -3.1167772895        1.0915952717       -2.2047354195
 C         -4.5585177295        1.4736473016       -1.8472659295
 C         -5.3402230998        0.3920172912       -1.0876496805
 H         -6.2902312097        0.2174439917       -1.5959540708
 H         -4.7848806199       -0.5474307689       -1.1028252310
 C         -5.6443368801        0.7819449102        0.3603610797
 H         -5.9686625299        1.8245235002        0.3818091204
 H         -6.4768805302        0.1726731701        0.7199406191
 C         -4.4892171903        0.5952503494        1.3426560799
 H         -4.2957902005       -0.4711127407        1.4867496892
 H         -4.8025031405        0.9978250487        2.3087838601
 C         -3.1607857801        1.2593546595        0.9424923906
 H         -3.3300744299        2.2088137099        0.4400046813
 H         -2.5911801103        1.4379395888        1.8582061209
 H         -4.5593275895        2.3927592212       -1.2632895089
 H         -5.0650085892        1.6992655424       -2.7873449095
 H         -2.5339633293        2.0012556118       -2.3830565287
 H         -3.1088960093        0.5245833024       -3.1391286999
 O         -1.6172582697       -0.6829650687       -1.9104000904
 C         -0.7743169200       -1.5713797992       -1.2656394608
 O         -0.1760005399       -2.3589076388       -2.0238905212
 H          1.3784269098       -0.0681717607        0.3960707507
 C          2.0644273498       -0.8664080106        0.1506308103
 C          1.6680984896       -2.1852869807        0.3344882793
 C          2.5704678195       -3.1966587306        0.0328578188
 C          3.8206130397       -2.8883900304       -0.4760347707
 C          4.1874715599       -1.5766075502       -0.7128526697
 C          3.2956277499       -0.5567051004       -0.4000464492
 N          3.6219839302        0.7902230098       -0.6172493882
 S          2.4241786204        1.8672409702       -1.0729809777
 O          1.3987311305        1.2480435809       -1.8799210583
 O          3.1484336107        2.9555567106       -1.6995048067
 C          1.7468757101        2.4625329192        0.4611252126
 C          2.6062303799        2.7370093284        1.5067214130
 C          2.0862914297        3.2603979276        2.6793210232
 C          0.7267575397        3.5132082177        2.7808160531
 C         -0.1212221701        3.2379814186        1.7199396427
 C          0.3905581301        2.7026804493        0.5486921525
 H         -0.2382758297        2.4523980600       -0.2923581479
 H         -1.1780043701        3.4348766087        1.7985850326
 H          0.3227745996        3.9252791371        3.6919940733
 H          2.7418236696        3.4721918770        3.5085705035
 H          3.6572715599        2.5333895883        1.3882305331
 H          4.4842807403        0.9484901000       -1.1181197379
 H          5.1494815800       -1.3402522701       -1.1413412093
 H          4.5114972696       -3.6835074903       -0.7121818911
 H          2.2907843893       -4.2267002706        0.1816592280
 C          0.2700994394       -2.4345390209        0.8442532088
 H          0.2277494392       -2.1375934416        1.9031130690
 C         -0.1719900207       -3.8773685907        0.7214202077
 C          0.1534112989       -4.8649552315        1.8010586071
 C         -1.2541077710       -4.3820295912        1.6269632271
 H         -1.9893917510       -5.0614358608        1.2226037665
 H         -1.6524030911       -3.6902044217        2.3547141375
 H          0.7083545088       -4.5073532122        2.6549983574
 H          0.3831502788       -5.8809880413        1.5174834664
 H         -0.1781626905       -4.2219035100       -0.3068274325
 O         -1.3135933206       -0.4431636116        2.1267925199
