  62
        -98.94492585
 C         -2.1946531405       -0.9514542103        0.5439541293
 C         -2.3438063305       -0.1587398406       -0.6200819008
 C         -3.1538040507        1.0562779893       -0.4614297412
 C         -3.6514339009        1.3777490295        0.7463727287
 C         -4.4793274411        2.5918954394        1.0697133784
 C         -5.9745831510        2.4251644492        0.7651847683
 C         -6.3418028409        2.4347751488       -0.7192998517
 H         -7.4276054509        2.5319583586       -0.7792072119
 H         -5.9093204710        3.3164125288       -1.1934163019
 C         -5.9166138506        1.1746918887       -1.4860600415
 H         -5.6981735006        0.3729155889       -0.7770029613
 H         -6.7442480005        0.8326831685       -2.1113980315
 C         -4.7076980806        1.3671688787       -2.4019827314
 H         -4.9583693206        2.0719073085       -3.1979285815
 H         -4.4714168804        0.4058741587       -2.8651236312
 C         -3.4468500207        1.8692860191       -1.6859748813
 H         -2.5972081506        1.7617655691       -2.3652717112
 H         -3.5541786209        2.9227952591       -1.4275532416
 H         -6.3215858610        1.4948804992        1.2207018684
 H         -6.4993871012        3.2499846192        1.2525933481
 H         -4.3636039812        2.7709605097        2.1409767584
 H         -4.0897334112        3.4555661794        0.5297759583
 O         -3.4321731309        0.6193872997        1.8542734589
 C         -2.7158027507       -0.5650581202        1.7778815892
 O         -2.6021767407       -1.1673085099        2.8658048593
 O         -1.8318471204       -0.4475732507       -1.7322703007
 C         -1.4073036103       -2.2485734002        0.4819491697
 C          0.0153728097       -1.9616334801        0.0654641798
 C          0.6678439399       -2.6314033902       -0.9603738700
 C          1.9703386999       -2.3010574101       -1.2937333000
 C          2.6508275097       -1.3106609098       -0.6102615501
 C          2.0092581494       -0.6374930197        0.4216723897
 C          0.7049386595       -0.9693859999        0.7521625096
 H          0.2027696593       -0.4413348298        1.5547405295
 N          2.6982649692        0.3581568805        1.1381204896
 S          3.4622547191        1.5741662505        0.2658042594
 O          3.5493452489        2.6928747507        1.1797493392
 O          2.8015114292        1.8239772901       -0.9942655507
 C          5.0965406393        0.9248913607       -0.0149772903
 C          5.5870627494        0.8273350705       -1.3023968102
 C          6.8613490395        0.3170238106       -1.4968278700
 C          7.6182716194       -0.0833059691       -0.4063779998
 C          7.1125796293        0.0255540411        0.8806239801
 C          5.8399930192        0.5355346410        1.0820573799
 H          5.4108987891        0.6394201711        2.0646119698
 H          7.7043976193       -0.2861716386        1.7260867902
 H          8.6082985695       -0.4824561389       -0.5605078397
 H          7.2562313896        0.2326841405       -2.4965249199
 H          4.9588676294        1.1447744802       -2.1196069403
 H          2.1581456891        0.7554793306        1.8934891694
 H          3.6633995296       -1.0494679797       -0.8701815701
 H          2.4633346900       -2.8242906801       -2.0987676098
 H          0.1539264601       -3.4042271304       -1.5074382100
 H         -1.3862833004       -2.6403986100        1.5095250897
 C         -2.1141801501       -3.2491852505       -0.4077634202
 C         -1.9330770599       -4.7190485104       -0.1803249699
 C         -3.2341694400       -4.0616964806        0.1665942098
 H         -4.0965828299       -4.2611188208       -0.4516087602
 H         -3.4715134501       -3.9106322704        1.2099334298
 H         -1.9048675897       -5.3740779606       -1.0378709898
 H         -1.2880918799       -5.0233417702        0.6299532702
 H         -2.2242319300       -2.8956037707       -1.4264029803
