  62
        -98.93843883
 C          1.7488894743       -0.0084474628        0.5223776626
 C          2.9493065465        0.0331708928        1.2682523031
 C          4.1834876633       -0.3245970265        0.5480315535
 C          4.1022828035       -0.6815961486       -0.7455701365
 C          5.2350142514       -1.0354513868       -1.6693336782
 C          5.7077114954        0.2023436476       -2.4506689674
 C          6.7702534757        1.0434590211       -1.7441332396
 H          7.7156433146        0.4968445519       -1.7401671321
 H          6.9173491183        1.9475342034       -2.3394834151
 C          6.4341349267        1.4500483446       -0.3070140864
 H          7.0476237274        2.3164011590       -0.0522628533
 H          5.3906021704        1.7645201833       -0.2485154133
 C          6.7018823523        0.3344855674        0.7141379212
 H          7.2896816786       -0.4503050867        0.2383848338
 H          7.3138024622        0.7288044454        1.5280370670
 C          5.4497783075       -0.2773963180        1.3594050657
 H          5.6836406993       -1.2917819899        1.6998014500
 H          5.1835428200        0.2963988496        2.2526565245
 H          4.8302363230        0.8184376873       -2.6634802876
 H          6.1169356093       -0.1238989036       -3.4090203533
 H          6.0536957384       -1.4900350712       -1.1194284706
 H          4.8397597412       -1.7649745882       -2.3794157478
 O          2.9224017637       -0.7185172954       -1.4251103187
 C          1.7217842297       -0.3858625991       -0.8196225639
 O          0.7293506256       -0.4627250002       -1.5682444009
 H         -2.1704211414        0.1174603577        0.3388953010
 C         -1.7774828024       -0.7968269414        0.7488066869
 C         -0.4758182628       -0.8489373914        1.2211489320
 C         -0.0044534711       -2.0503458435        1.7463910289
 C         -0.8114110091       -3.1697701925        1.7845227499
 C         -2.1064263747       -3.1166556243        1.2980225282
 C         -2.5899228827       -1.9232890082        0.7776388926
 N         -3.9142800141       -1.8262369081        0.3246860124
 S         -4.2763844524       -0.9829547580       -1.0776838343
 O         -5.5972827049       -1.4573264486       -1.4374332886
 O         -3.2544105245       -1.1375693578       -2.0848742452
 C         -4.4078666091        0.7166627021       -0.5660852209
 C         -5.2054103026        1.0201832573        0.5197955186
 C         -5.3442038958        2.3461356738        0.8971902997
 C         -4.6939937918        3.3406167971        0.1819732865
 C         -3.8987517242        3.0190518920       -0.9078537356
 C         -3.7521392179        1.6939209616       -1.2880776767
 H         -3.1321079695        1.3958391864       -2.1194197204
 H         -3.3904468777        3.7924309761       -1.4619575078
 H         -4.8036562453        4.3726773054        0.4760018017
 H         -5.9583559867        2.6010791778        1.7456152948
 H         -5.6988257405        0.2202828757        1.0457104173
 H         -4.4368192897       -2.6894946846        0.3695618753
 H         -2.7375303853       -3.9922170714        1.3218132790
 H         -0.4303349683       -4.0943008489        2.1917278131
 H          1.0083585363       -2.0920330695        2.1235964235
 C          0.4450383630        0.3461863987        1.2143219576
 H          0.7235932753        0.5619598926        2.2567713007
 C         -0.1723053436        1.5890326802        0.6105882833
 C         -1.0604121980        2.4603140424        1.4464339492
 C          0.3098565142        2.9324839784        1.0661934882
 H          0.4013570117        3.7210861612        0.3346358198
 H          1.0763580623        2.9522100531        1.8271732303
 H         -1.9143955377        2.9259046759        0.9786939179
 H         -1.2260432517        2.1617254796        2.4703313047
 H         -0.4069543311        1.4716457712       -0.4418013954
 O          2.9897744535        0.3568296955        2.4863153011
