  62
        -98.94442227
 C          2.0911649106        1.3913170489        0.0324463700
 C          2.3943172303        0.4357797388       -0.9676996500
 C          3.7392722703       -0.1523429314       -0.9047610303
 C          4.6020448305        0.2309272886        0.0526257895
 C          6.0080062305       -0.2714930416        0.2364612693
 C          6.1003576005       -1.5857172416        1.0238867293
 C          5.6366164501       -2.8313908216        0.2676465895
 H          6.1452386799       -2.8810277417       -0.6957130306
 H          5.9573106902       -3.6973950116        0.8501572794
 C          4.1185508701       -2.9161787414        0.0553997698
 H          3.6145471103       -2.2317690313        0.7421547498
 H          3.7722955800       -3.9232545413        0.2992446299
 C          3.6596132498       -2.6135040714       -1.3710791101
 H          4.0519738796       -3.3732548015       -2.0508709402
 H          2.5682915298       -2.6707272112       -1.3972953699
 C          4.0767810399       -1.2311075915       -1.8898774103
 H          5.1428757199       -1.2206523716       -2.1149429905
 H          3.5226468398       -1.0288268314       -2.8097246602
 H          5.5218546907       -1.4825847515        1.9449587594
 H          7.1471444605       -1.7256939817        1.3031736791
 H          6.4854620103       -0.3939433817       -0.7360553708
 H          6.5436241707        0.5009321283        0.7924819391
 O          4.2827423608        1.1658979586        0.9851550295
 C          3.0285487109        1.7491650288        1.0084667298
 O          2.8697862412        2.5735897989        1.9307777698
 H         -0.2612374697       -0.2356156008       -0.7972214295
 C         -0.7035491895        0.0386101193        0.1489510206
 C         -0.2879059192        1.2020462592        0.7810437805
 C         -0.8574726089        1.5337636194        2.0046693406
 C         -1.8130405789        0.7160373095        2.5830708308
 C         -2.2206890592       -0.4459633605        1.9532945510
 C         -1.6555077395       -0.7859931706        0.7305579709
 N         -2.0657737098       -1.9617957506        0.0779584510
 S         -3.7123499998       -2.2335074404       -0.0411878087
 O         -4.1965624597       -2.8123985702        1.1877987115
 O         -3.8852524802       -3.0418880204       -1.2277051986
 C         -4.4338630497       -0.6170762503       -0.2690428386
 C         -4.0212300698        0.1338291496       -1.3520992487
 C         -4.5443393797        1.4046656697       -1.5238836887
 C         -5.4657568894        1.9014271598       -0.6146517285
 C         -5.8735838193        1.1332504499        0.4644568516
 C         -5.3519134694       -0.1381883501        0.6428615216
 H         -5.6367962893       -0.7675363000        1.4702196217
 H         -6.5917659791        1.5211155801        1.1687194618
 H         -5.8674103093        2.8931888399       -0.7498580185
 H         -4.2278792398        2.0031453096       -2.3629910687
 H         -3.3049524300       -0.2797787105       -2.0440039488
 H         -1.6026012100       -2.1129089907       -0.8063364491
 H         -2.9577562692       -1.0990265703        2.3920911711
 H         -2.2441158187        0.9850234796        3.5352172809
 H         -0.5347964187        2.4328479893        2.5091826805
 C          0.7470240908        2.0963466891        0.1405165602
 H          0.9153266010        2.9468184391        0.8141052302
 C          0.2488866406        2.6309946991       -1.1891826997
 C         -0.7729248993        3.7260959292       -1.1927919895
 C          0.6366309407        4.0140598490       -1.6131583598
 H          0.8400459605        4.1940388689       -2.6582023399
 H          1.2640356009        4.5847034890       -0.9436544700
 H         -1.5408025695        3.7111530993       -1.9504709994
 H         -1.1040140991        4.1041650593       -0.2376083195
 H          0.1844463003        1.8758669390       -1.9608794096
 O          1.6041598401        0.0724842689       -1.8806882399
