  62
        -98.94593261
 C          2.1121700961        1.4930707110        0.0081826931
 C          1.8378896759        0.3786425738       -0.8208997378
 C          2.9012751075       -0.6343231776       -0.8970151782
 C          4.0494394467       -0.4399896374       -0.2231629773
 C          5.1913400705       -1.4127268253       -0.1751093178
 C          5.0533860668       -2.3733597479        1.0144437408
 C          3.6725855648       -3.0191348398        1.1307508170
 H          3.7041102381       -3.7002074162        1.9839297958
 H          2.9358667064       -2.2467394961        1.3636540835
 C          3.2230720726       -3.7863307437       -0.1204151993
 H          4.0862822881       -4.0075181998       -0.7492516205
 H          2.7965759606       -4.7420387283        0.1909459818
 C          2.1568246030       -3.0707788775       -0.9519768895
 H          1.3380052008       -2.7547241616       -0.3010751460
 H          1.7530401722       -3.7871979381       -1.6723777122
 C          2.6389348727       -1.8482556085       -1.7430962558
 H          3.5228889108       -2.1106470851       -2.3279153713
 H          1.8427669817       -1.5610155567       -2.4360838755
 H          5.8145034277       -3.1501819748        0.9202572918
 H          5.2494957017       -1.8162084554        1.9335733375
 H          5.2244666891       -1.9737768864       -1.1069706454
 H          6.1194592146       -0.8484460265       -0.0688626410
 O          4.2852314550        0.6580370787        0.5402165513
 C          3.3196346653        1.6390702012        0.6912656718
 O          3.6495702357        2.5764331765        1.4459335784
 H         -1.4703028140        2.4655554552       -0.9066042248
 C         -1.3984374977        1.9773715450        0.0522132440
 C         -0.1940377053        1.9628367962        0.7349316611
 C         -0.1345358753        1.3138347024        1.9661079976
 C         -1.2521722067        0.7012490171        2.4986888342
 C         -2.4532837997        0.7112393783        1.8100789089
 C         -2.5196163778        1.3462387949        0.5778847497
 N         -3.7265946917        1.3419351433       -0.1390095217
 S         -4.6267338435       -0.0670731727       -0.1684288549
 O         -5.3692478082       -0.0113713981       -1.4086857804
 O         -5.4245537199       -0.1541804757        1.0304672220
 C         -3.4522829743       -1.4107368973       -0.2042494162
 C         -3.5583567777       -2.4275011527        0.7233005770
 C         -2.6460076083       -3.4693899704        0.6840262605
 C         -1.6457096366       -3.4746712208       -0.2757966836
 C         -1.5535476614       -2.4467136736       -1.2012914112
 C         -2.4647842889       -1.4045177312       -1.1687766546
 H         -2.4010247437       -0.5937875159       -1.8760129982
 H         -0.7680558280       -2.4368576695       -1.9392290797
 H         -0.9317577516       -4.2829798784       -0.3031807020
 H         -2.7148782414       -4.2701163195        1.4028244881
 H         -4.3474681722       -2.3799017427        1.4563784641
 H         -3.6618831938        1.7553634270       -1.0575383885
 H         -3.3361445839        0.2404978952        2.2111453598
 H         -1.1902386296        0.2069759271        3.4563433264
 H          0.8076018391        1.2948388405        2.4975680398
 C          1.0677077137        2.5819061207        0.1858788749
 H          1.4696324441        3.2695079343        0.9431865918
 C          0.8738568313        3.3441070186       -1.1078923318
 C          0.3128775419        4.7334362505       -1.0816960166
 C          1.7612076358        4.5151830306       -1.3989343312
 H          2.0966795244        4.6684438561       -2.4137581994
 H          2.4969115243        4.7785694740       -0.6529659870
 H         -0.3447947723        5.0420258594       -1.8804563234
 H          0.0621133077        5.1523200704       -0.1188788993
 H          0.6133299697        2.7014047133       -1.9408943947
 O          0.7677395655        0.2345155498       -1.4661224683
