  62
        -98.94186753
 C          1.1812144608        1.0006430794        0.4152630607
 C          2.0307437008        0.7010672599       -0.6730534594
 C          3.0130111404       -0.3832149106       -0.4705023800
 C          3.0138360001       -1.0492044014        0.6991496895
 C          3.9354272597       -2.1558522020        1.1375150189
 C          5.3311130998       -1.6446632227        1.5337261794
 C          5.9170906902       -0.5834825722        0.6056637902
 H          5.2255731605        0.2587263080        0.5434577907
 H          6.8385461103       -0.2145545128        1.0636669806
 C          6.2568703303       -1.0660075313       -0.8023014201
 H          6.7221428506       -0.2294818911       -1.3297748794
 H          6.9942280900       -1.8692935016       -0.7370183005
 C          5.0776726902       -1.5606900304       -1.6416721706
 H          4.7628096799       -2.5521880905       -1.3271490213
 H          5.4304609403       -1.6604131598       -2.6725162006
 C          3.8805724105       -0.6156123200       -1.6840541701
 H          4.2185751909        0.3763012101       -2.0051989793
 H          3.1966217505       -0.9560807692       -2.4716861104
 H          5.2570920398       -1.2074254934        2.5323525597
 H          6.0082245095       -2.4986012629        1.5888324589
 H          3.4728100494       -2.6213368025        2.0109086985
 H          4.0009395095       -2.9119720115        0.3604311083
 O          2.1462846100       -0.7511916018        1.7082419296
 C          1.2075833604        0.2539719585        1.5914367002
 O          0.4620884403        0.3860474481        2.5849937902
 H         -0.7863606196       -0.3375510895       -0.3054243605
 C         -1.2504726693        0.4166393011       -0.9217279400
 C         -0.8665570089        1.7431500109       -0.7863532591
 C         -1.4561309084        2.6894641216       -1.6156638585
 C         -2.3940986684        2.3045207126       -2.5582129989
 C         -2.7822518488        0.9823503528       -2.6798770798
 C         -2.2011772192        0.0292132020       -1.8514784704
 N         -2.5599565297       -1.3250036678       -1.9311006614
 S         -2.6204529701       -2.2424697188       -0.5340241621
 O         -1.2900047203       -2.5709883995       -0.0856092921
 O         -3.4598756104       -3.3678314182       -0.8880834830
 C         -3.4693200500       -1.2114624193        0.6490408885
 C         -4.8143752199       -0.9804533988        0.4289014585
 C         -5.5051959997       -0.1475159391        1.2924172290
 C         -4.8409584797        0.4450685199        2.3562345595
 C         -3.4937390198        0.1995029393        2.5666577095
 C         -2.7969682399       -0.6367030703        1.7074118690
 H         -1.7464035500       -0.8336177007        1.8555934290
 H         -2.9662398498        0.6549055386        3.3898294399
 H         -5.3752187396        1.0989802096        3.0272253099
 H         -6.5547932096        0.0397801013        1.1334875990
 H         -5.2967855499       -1.4693436380       -0.4018594519
 H         -3.3297149596       -1.5287301571       -2.5512246817
 H         -3.5175193088        0.6866196835       -3.4121290301
 H         -2.8370156081        3.0478993032       -3.2032534884
 H         -1.1758714381        3.7263886015       -1.5289195977
 C          0.1349006011        2.0914077498        0.2899052413
 H         -0.4044941090        2.1019997693        1.2496814313
 C          0.7907978516        3.4416280597        0.0848550424
 C          0.1571273819        4.6834067495        0.6343262032
 C          1.4003095816        4.1347189887        1.2652764829
 H          2.3300849918        4.6660969185        1.1283150234
 H          1.3160609713        3.6445772481        2.2246601526
 H          0.2357439522        5.5973064999        0.0649557438
 H         -0.7716955582        4.5755566695        1.1737575130
 H          1.3168115717        3.5069262302       -0.8603436875
 O          1.9840052511        1.3119654307       -1.7737146690
