  62
        -98.94633855
 C         -1.7825800224       -0.7508221193        0.2152206836
 C         -3.0751102966       -0.9891578019        0.7403640808
 C         -3.9910021730        0.1591560079        0.7361212274
 C         -3.5581498285        1.3440305665        0.2672890724
 C         -4.4018406449        2.5798697200        0.1536530369
 C         -5.0822164112        2.6625058183       -1.2200016003
 C         -5.7948530802        1.3752755141       -1.6350190959
 H         -6.2632824084        1.5608240821       -2.6040858277
 H         -5.0520875692        0.5879846278       -1.7836604818
 C         -6.8565837189        0.8879248220       -0.6391494187
 H         -7.7505119986        0.5971874652       -1.1949509641
 H         -7.1409601854        1.7026703758        0.0277327427
 C         -6.4362390122       -0.3248825606        0.1931872359
 H         -6.0631781961       -1.1112033720       -0.4680303316
 H         -7.3242528273       -0.7157909163        0.6970630591
 C         -5.3780851425       -0.0596158032        1.2714769052
 H         -5.6894564078        0.7822167564        1.8931944695
 H         -5.3180974705       -0.9504467380        1.9036722166
 H         -5.7976767042        3.4866315460       -1.2019220653
 H         -4.3213916381        2.8890469556       -1.9705531378
 H         -5.1517575241        2.5758526080        0.9421988437
 H         -3.7565002238        3.4503517787        0.2821040596
 O         -2.3010602104        1.5405739674       -0.2055651836
 C         -1.3852289482        0.5000416748       -0.2547509533
 O         -0.2756582122        0.8154100571       -0.7230551661
 H          1.8708543880       -1.9173162216       -0.6385175830
 C          1.7262183282       -1.6108091554        0.3833964616
 C          0.4565760460       -1.5412830715        0.9337009648
 C          0.3263985666       -1.1369280561        2.2610065651
 C          1.4356045948       -0.7998711771        3.0108705145
 C          2.7008739819       -0.8503905373        2.4506213159
 C          2.8429985412       -1.2576177437        1.1307878247
 N          4.1176992246       -1.3446687914        0.5381768906
 S          4.4406423905       -0.4749927159       -0.8566019727
 O          3.5553851029       -0.8909255488       -1.9120740119
 O          5.8542688588       -0.6762612740       -1.0919199223
 C          4.1544535561        1.2261528627       -0.4018354058
 C          5.2430914621        2.0032172802       -0.0530728352
 C          5.0335363717        3.3075853618        0.3624285546
 C          3.7419681579        3.8085790212        0.4321136003
 C          2.6616477048        3.0136133744        0.0833363979
 C          2.8624050655        1.7076878103       -0.3385151074
 H          2.0274703318        1.0830316832       -0.6147120995
 H          1.6524485220        3.3909921684        0.1338858373
 H          3.5754214149        4.8232564406        0.7583433180
 H          5.8735673463        3.9274626975        0.6316836458
 H          6.2287167787        1.5724946173       -0.1267897272
 H          4.8769042458       -1.2097489111        1.1918099633
 H          3.5699784619       -0.5814840781        3.0317986400
 H          1.3163788846       -0.4889661124        4.0377393759
 H         -0.6632056283       -1.0906068450        2.6952493717
 C         -0.7885534050       -1.8966701569        0.1606601274
 H         -1.2820958903       -2.7360214943        0.6731724389
 C         -0.5226297629       -2.2958959600       -1.2753656840
 C         -0.1151433663       -3.7000902812       -1.6030303679
 C         -1.4856848396       -3.2135828247       -1.9643934551
 H         -1.7143403342       -3.0356990181       -3.0046310490
 H         -2.3252073208       -3.5741539410       -1.3877537350
 H         -0.0244576603       -4.3980536372       -0.7844339386
 H          0.6026798286       -3.8542410942       -2.3947863727
 H         -0.0926192312       -1.4924962663       -1.8642735117
 O         -3.4420174691       -2.1060152486        1.1950373534
