  62
        -98.94310546
 C         -2.5850056402       -0.0228795391        0.3846008794
 C         -2.7283148001       -1.0402033791       -0.5949515706
 C         -2.1866196807       -2.3580599393       -0.2570847502
 C         -1.5964823913       -2.5440551894        0.9368139700
 C         -0.9489616920       -3.8139303595        1.4176454004
 C          0.4915729382       -3.9831752901        0.9143613611
 C          0.6219375887       -4.3844273103       -0.5560288188
 H          1.6504783786       -4.7191301107       -0.7049655784
 H         -0.0312128516       -5.2338160001       -0.7608423190
 C          0.3268817695       -3.2505010803       -1.5479856691
 H          0.3953153296       -2.2890217603       -1.0327106591
 H          1.0904021398       -3.2467544606       -2.3300401087
 C         -1.0279847502       -3.3519328099       -2.2495480096
 H         -1.1519808896       -2.4665834599       -2.8784305498
 H         -1.0401122103       -4.2323211099       -2.8969885396
 C         -2.2327869807       -3.4300628193       -1.3040683902
 H         -3.1399096504       -3.2762644491       -1.8942550206
 H         -2.2815934412       -4.4130580593       -0.8358841401
 H          0.9640072876       -4.7556019602        1.5262636214
 H          1.0278762884       -3.0449473403        1.0816679212
 H         -0.9317744924       -3.7619947595        2.5084721904
 H         -1.5487028922       -4.6741602494        1.1180888303
 O         -1.5333812114       -1.5662641293        1.8759602800
 C         -1.9801633408       -0.2767622192        1.6162457397
 O         -1.7989245609        0.5060185209        2.5712853697
 H         -0.4132943398        1.5247158402        0.7607454902
 C         -0.5534886692        1.9372819102       -0.2272233899
 C         -1.8204581689        1.9869416506       -0.7900675105
 C         -1.9672961382        2.5469082305       -2.0531060306
 C         -0.8650926877        3.0180856800       -2.7451804302
 C          0.4042801020        2.9059226996       -2.2078927496
 C          0.5589654813        2.3556443897       -0.9399184995
 N          1.8273142110        2.1991714593       -0.3597679489
 S          2.0843887600        0.8042197393        0.5678182213
 O          1.3443763299       -0.3068184805        0.0174840011
 O          1.8493922596        1.1269281295        1.9528746312
 C          3.8336353901        0.5615262386        0.3131690921
 C          4.2645562901       -0.4127007216       -0.5665822976
 C          5.6258177901       -0.5726110221       -0.7753070670
 C          6.5271273101        0.2424113676       -0.1073705667
 C          6.0793072401        1.2162953478        0.7733137030
 C          4.7201927001        1.3798655484        0.9883081324
 H          4.3248595600        2.1138405986        1.6711532522
 H          6.7827283601        1.8463845876        1.2932029732
 H          7.5855515202        0.1159786272       -0.2715021362
 H          5.9760527001       -1.3313759623       -1.4562597368
 H          3.5257164501       -1.0255329014       -1.0580021779
 H          2.5846128513        2.3671684989       -1.0080511586
 H          1.2691214324        3.2345378493       -2.7638787493
 H         -0.9923603671        3.4489006100       -3.7266630503
 H         -2.9481027280        2.5859059108       -2.5029834510
 C         -2.9917745195        1.3741057011       -0.0550398709
 H         -3.8040634792        1.2337270313       -0.7823435213
 C         -3.4835000796        2.2923658713        1.0427211388
 C         -4.3935169091        3.4286086116        0.6857393583
 C         -4.9255796798        2.2520486719        1.4462247881
 H         -5.1674117902        2.3727781221        2.4911693880
 H         -5.5689347998        1.5567327621        0.9269788779
 H         -4.2719134189        4.3655212616        1.2069744482
 H         -4.6829583986        3.5337368516       -0.3487471719
 H         -2.7537475399        2.4565185511        1.8248225091
 O         -3.2876263196       -0.8478616790       -1.7091050309
