  62
        -98.93504268
 C         -2.6338216174       -0.5724893060       -0.4460548818
 C         -3.1253517764        0.3014771789        0.5573072778
 C         -3.0343038890        1.7464439429        0.2947719638
 C         -2.5019353030        2.1601656696       -0.8680021905
 C         -2.2069723609        3.5706842279       -1.2953979152
 C         -0.7618168535        3.9457404596       -0.9207288009
 C         -0.5947523491        4.5368249375        0.4781147993
 H          0.4774946636        4.6518287285        0.6529248657
 H         -1.0448512938        5.5317928261        0.5063331602
 C         -1.1848124287        3.6967790550        1.6137428404
 H         -0.9375875353        2.6443493184        1.4538137457
 H         -0.6964998031        3.9995490227        2.5424475302
 C         -2.7031645808        3.8707693118        1.7698961803
 H         -3.0229082116        4.7348676763        1.1877087178
 H         -2.9340361840        4.0960960316        2.8130767699
 C         -3.5473458295        2.6471432639        1.3850758868
 H         -3.6548510961        1.9925122167        2.2555769946
 H         -4.5553021453        2.9804056038        1.1162007429
 H         -0.3895546285        4.6751352468       -1.6433062156
 H         -0.1411241173        3.0487398177       -1.0098591968
 H         -2.9196196443        4.2661704429       -0.8621255035
 H         -2.3038894465        3.5953528617       -2.3826866881
 O         -2.0833129052        1.2910816549       -1.8247513774
 C         -2.0979883248       -0.0792310486       -1.6352381460
 O         -1.6172188703       -0.7138406426       -2.5976832371
 O         -3.6116348457       -0.1168867813        1.6431891726
 C         -2.6159876356       -2.0525692624       -0.0953771981
 C         -1.2856425238       -2.3664848289        0.5495706583
 C         -1.1994751266       -2.9099794538        1.8252225909
 C          0.0302584877       -3.0843378903        2.4379397100
 C          1.1965732751       -2.6997300173        1.8003423326
 C          1.1180630857       -2.1685103720        0.5216705908
 C         -0.1089489389       -2.0272533016       -0.1031536451
 H         -0.1517935910       -1.6008617996       -1.0950976209
 N          2.3027075215       -1.6865693588       -0.1065729921
 S          2.5762299054       -0.0722168514        0.3448215735
 O          2.4692092589        0.0143413405        1.7790833470
 O          1.7232219106        0.8149059348       -0.4191900891
 C          4.2762522937        0.1345410335       -0.1493273016
 C          5.2635102050       -0.3668194985        0.6768067172
 C          6.5870963377       -0.2543118434        0.2834102894
 C          6.8994355237        0.3526100002       -0.9241148354
 C          5.8973873265        0.8514897335       -1.7422554957
 C          4.5709553216        0.7406034700       -1.3546946400
 H          3.7597119059        1.1198446664       -1.9558146970
 H          6.1422896207        1.3250752976       -2.6793688703
 H          7.9302634991        0.4390775126       -1.2292436352
 H          7.3691586177       -0.6396048883        0.9174669887
 H          4.9717035655       -0.8226308565        1.6081662327
 H          2.1936367607       -1.6856435946       -1.1141882469
 H          2.1563100948       -2.7828673280        2.2826516771
 H          0.0777994957       -3.5009161002        3.4325191049
 H         -2.1074293289       -3.1662183560        2.3512349176
 H         -3.3969914959       -2.1855759707        0.6653570019
 C         -2.9057014379       -2.9855573773       -1.2520754556
 C         -3.4232893333       -4.3613738754       -0.9612449088
 C         -4.3263516784       -3.3347461559       -1.5745803219
 H         -4.6050376466       -3.4407347490       -2.6119961144
 H         -5.0991714200       -2.9002767870       -0.9574213104
 H         -3.0813635255       -5.1788203642       -1.5769062446
 H         -3.5874299628       -4.6265354092        0.0720680272
 H         -2.2231188582       -2.8674166900       -2.0830795934
