  62
        -98.93748459
 C         -1.1416211576       -1.4755189719        0.6464286109
 C         -2.0369248261       -1.3601113960       -0.4436701340
 C         -3.0974218248       -0.3442648199       -0.3034043913
 C         -3.1222198191        0.4370574205        0.7910357984
 C         -4.1240731159        1.5223545779        1.0717934430
 C         -3.8336578070        2.7806058555        0.2295101729
 C         -4.9146441561        3.1127056227       -0.7984358461
 H         -5.7818160430        3.5316346438       -0.2837295885
 H         -4.5144931855        3.8888615514       -1.4543926620
 C         -5.3965434818        1.9363310038       -1.6524906473
 H         -5.9369968252        2.3581886557       -2.5025088093
 H         -6.1191974738        1.3447359144       -1.0883436514
 C         -4.3009729144        0.9999147313       -2.1791828161
 H         -3.3422945783        1.5164946652       -2.2280762155
 H         -4.5592419701        0.7185503877       -3.2022119210
 C         -4.1423991214       -0.3097038391       -1.3853050293
 H         -5.1093232561       -0.5939398465       -0.9595998785
 H         -3.8475640932       -1.1022986086       -2.0797433724
 H         -3.7174761784        3.6425056280        0.8885106703
 H         -2.8816711505        2.6431840483       -0.2845880729
 H         -5.1255650383        1.1507106525        0.8636646580
 H         -4.0561651575        1.7533906087        2.1352505676
 O         -2.1829681519        0.3599651081        1.7702701148
 C         -1.1822238459       -0.5922964603        1.7285119294
 O         -0.3999479424       -0.5597537754        2.6992790483
 H          2.0404474478       -1.0792843319        1.4093622303
 C          2.0995546232       -1.3577791188        0.3648050635
 C          1.0893846811       -2.1390258053       -0.1830799717
 C          1.1564706143       -2.4627791479       -1.5328020755
 C          2.2138879746       -2.0188016876       -2.3083994948
 C          3.2231956716       -1.2482579858       -1.7581178606
 C          3.1584820336       -0.9126488286       -0.4125786904
 N          4.1696611269       -0.0899681445        0.1408119170
 S          4.0828786332        1.5175203380       -0.3250041861
 O          4.2147655076        1.5893267053       -1.7568241368
 O          5.0844109539        2.2122819049        0.4498556978
 C          2.4515063102        2.0329382226        0.1764722621
 C          1.3697172779        1.6566022147       -0.5944379961
 C          0.0948689689        1.9654562531       -0.1500334943
 C         -0.0772067443        2.6448493488        1.0455903555
 C          1.0199026716        3.0175257518        1.8059955534
 C          2.2972084899        2.7005719730        1.3747596621
 H          3.1773415361        2.9636812914        1.9396351405
 H          0.8794997082        3.5409413603        2.7379645871
 H         -1.0719094383        2.8732316301        1.3938907368
 H         -0.7582292072        1.6536727446       -0.7341406279
 H          1.5335647467        1.1340884044       -1.5232354466
 H          4.1951273126       -0.1279389120        1.1511222141
 H          4.0436107615       -0.8803742644       -2.3522738245
 H          2.2523193655       -2.2759260717       -3.3561299399
 H          0.3629044453       -3.0396333665       -1.9788091004
 C         -0.0625297167       -2.5477686514        0.7010341832
 H          0.3007730037       -2.5439301463        1.7375707837
 C         -0.5979093648       -3.9295509974        0.3876146980
 C          0.2277212463       -5.1255943221        0.7509903800
 C         -1.0252357385       -4.8196618199        1.5139766052
 H         -1.8862945895       -5.4549336838        1.3698936195
 H         -0.9299956334       -4.4373391420        2.5201034037
 H          1.1744567786       -4.9487654708        1.2390845854
 H          0.2297932216       -5.9733472258        0.0833310681
 H         -1.1800744013       -3.9753083354       -0.5228056611
 O         -1.9849241491       -2.0737876963       -1.4786454311
