  62
        -98.93992765
 C         -2.5140283798       -1.2755849196       -0.1619389004
 C         -2.2306369497       -0.0750316697       -0.8579555605
 C         -3.3585867997        0.8545752503       -1.0073454908
 C         -4.5679559897        0.5280833604       -0.5173554309
 C         -5.8131640097        1.3688908003       -0.5973153111
 C         -5.9181778799        2.4293531005        0.5075677988
 C         -4.9670476099        3.6182105904        0.3632219088
 H         -5.0633967798        4.0403949503       -0.6374243713
 H         -5.2972810200        4.3801567205        1.0719189286
 C         -3.4935005399        3.2907812305        0.6444396490
 H         -3.4248239599        2.3441426105        1.1856957991
 H         -3.0652851800        4.0595684006        1.2915206089
 C         -2.6133694098        3.2092377504       -0.6031264109
 H         -2.5608989697        4.1903964803       -1.0806756710
 H         -1.6012585298        2.9311777204       -0.2951307708
 C         -3.0875499796        2.1848468102       -1.6422382309
 H         -3.9756784896        2.5516979602       -2.1564732510
 H         -2.2880377195        2.0468190702       -2.3746894008
 H         -5.7513787900        1.9454048106        1.4725309688
 H         -6.9424499699        2.8087565104        0.4979184486
 H         -5.8679630896        1.8510699902       -1.5735149912
 H         -6.6577352897        0.6838318903       -0.4984717311
 O         -4.8054946598       -0.6506349796        0.1174681392
 C         -3.7854748898       -1.5614805095        0.3374001895
 O         -4.1329256599       -2.5751029895        0.9767845895
 H          1.2268772703       -1.5431541696       -0.3595261700
 C          0.8863236101       -1.3146384095        0.6355825200
 C         -0.4025270199       -1.6313380294        1.0328636399
 C         -0.8066466401       -1.3043776393        2.3258902598
 C          0.0558350498       -0.6672452992        3.1953926198
 C          1.3360826099       -0.3335581092        2.7883204499
 C          1.7513199500       -0.6591301494        1.5030825400
 N          3.0646838301       -0.3628287094        1.0877671501
 S          3.3048445702        0.3486398404       -0.4284054099
 O          2.5598965103        1.5845417504       -0.5215726602
 O          3.0805512504       -0.6344103497       -1.4557049599
 C          5.0500989202        0.7042988604       -0.3141294698
 C          5.4623366502        1.9686945905        0.0616700901
 C          6.8194007802        2.2260905105        0.1768531703
 C          7.7367938902        1.2189880605       -0.0819360395
 C          7.3083316203       -0.0449562696       -0.4596709394
 C          5.9528382003       -0.3081949096       -0.5771328996
 H          5.5729328903       -1.2713598696       -0.8751172595
 H          8.0246759503       -0.8245102296       -0.6631066193
 H          8.7923365302        1.4213755305        0.0082971006
 H          7.1550686501        3.2088331905        0.4665546002
 H          4.7133418602        2.7231755305        0.2420593100
 H          3.5582934900        0.1814071807        1.7845774401
 H          2.0090673898        0.1746989608        3.4627634499
 H         -0.2714408603       -0.4192081891        4.1939914897
 H         -1.8142232601       -1.5527157193        2.6324395297
 C         -1.4109685698       -2.2834722696        0.1175840198
 H         -1.8870890699       -3.1074280295        0.6681349898
 C         -0.8208820696       -2.8318091997       -1.1628188301
 C         -0.0858359896       -4.1370523897       -1.1370056498
 C         -1.4338035596       -4.0483997998       -1.7857396200
 H         -1.4942170694       -4.0999473299       -2.8624909000
 H         -2.2766711596       -4.4954916697       -1.2786829700
 H         -0.0126522297       -4.6481539296       -0.1888710898
 H          0.7836431904       -4.2484406798       -1.7669040597
 H         -0.4602537496       -2.0585213898       -1.8311158601
 O         -1.1015550996        0.2132816803       -1.3347045804
