  62
        -98.93841300
 C          1.9168038271        1.0556350054       -0.2176260847
 C          2.4085487441       -0.1142222775       -0.8403498239
 C          3.8690753975       -0.3144182516       -0.7881277058
 C          4.6358813770        0.6102565127       -0.1845785565
 C          6.1245193007        0.5715185342        0.0245203878
 C          6.4628787735       -0.0302546120        1.3990725553
 C          6.5862411907       -1.5532844770        1.4229819488
 H          7.4996422391       -1.8472076564        0.9016100644
 H          6.6943262387       -1.8541305246        2.4675879634
 C          5.4080235317       -2.3160494319        0.8113377189
 H          4.4678748492       -1.8630594733        1.1315887830
 H          5.4265341364       -3.3335810571        1.2066352136
 C          5.4607630212       -2.3790383671       -0.7224245805
 H          5.3448769795       -3.4155626001       -1.0459633129
 H          6.4470438956       -2.0592882582       -1.0584134058
 C          4.3789974585       -1.5659131337       -1.4489930687
 H          4.7377163568       -1.3105641498       -2.4518746291
 H          3.4876424171       -2.1865806436       -1.5865200553
 H          5.6895315591        0.2878207736        2.1029530413
 H          7.4098729033        0.3908126949        1.7426068003
 H          6.4687311017        1.6076313006        0.0043314587
 H          6.6129419119        0.0244677545       -0.7762324787
 O          4.1192370349        1.7310929989        0.3911189328
 C          2.7598660484        1.9798052858        0.3981622327
 O          2.4286771408        3.0342439826        0.9769632626
 O          1.6676219631       -0.9593576365       -1.4081889298
 C          0.4262712472        1.3459233824       -0.2142649617
 C         -0.3215075406        0.1876815645        0.3992740563
 C          0.0792943139       -0.2759291918        1.6505921690
 C         -0.5556236170       -1.3484098829        2.2443015053
 C         -1.6155894956       -1.9736781153        1.6102899589
 C         -2.0304663198       -1.5141352498        0.3670971420
 C         -1.3888428465       -0.4345134165       -0.2275196213
 H         -1.7218917415       -0.1140236352       -1.1997518446
 N         -3.0933812495       -2.1401924137       -0.3037241142
 S         -4.2847814818       -1.2300030925       -1.0411424305
 O         -5.3702716644       -2.1614200616       -1.2550988021
 O         -3.7675776790       -0.5744886532       -2.2141986917
 C         -4.7476162108       -0.0300677072        0.1939598870
 C         -5.5775561929       -0.4382638894        1.2202157414
 C         -5.8939079311        0.4609463435        2.2251031038
 C         -5.3700652169        1.7446248956        2.1917012434
 C         -4.5398016986        2.1389641992        1.1541542756
 C         -4.2228503817        1.2449711741        0.1433424547
 H         -3.5851283700        1.5163304824       -0.6815090435
 H         -4.1352768946        3.1383347204        1.1284107861
 H         -5.6120542874        2.4434569116        2.9768645891
 H         -6.5438560717        0.1594749110        3.0306667971
 H         -5.9724457963       -1.4411651640        1.2033615673
 H         -3.4951539573       -2.9226154289        0.1917002047
 H         -2.1076318047       -2.8184108509        2.0679414362
 H         -0.2253929720       -1.7018466578        3.2095229453
 H          0.9093486634        0.2118048771        2.1442014639
 H          0.2917651950        2.2246339394        0.4334761628
 C         -0.0356475968        1.6988543907       -1.6123682938
 C         -1.1770780912        2.6480766489       -1.8130516987
 C          0.2217074709        3.0788565319       -2.1354855147
 H          0.5041260069        3.1931734859       -3.1712751352
 H          0.7081990360        3.7774299119       -1.4700255439
 H         -1.8630436381        2.4650608587       -2.6272651901
 H         -1.6350121352        3.0686054163       -0.9302447477
 H          0.0741892067        0.8766578516       -2.3107905253
